9
Coordinates from ORCA-job test E -117.830826138023
  C       1.323958     -0.136126     -0.022726
  C       0.192027      0.397992     -0.387193
  C      -1.081112     -0.087938      0.194053
  H       1.328200     -0.927142      0.698323
  H       2.248309      0.208269     -0.437052
  H       0.184690      1.195152     -1.113490
  H      -1.198358      0.411889      1.177481
  H      -1.049313     -1.198541      0.383876
  H      -1.948401      0.136445     -0.493271
9
Coordinates from ORCA-job test E -117.836209983501
  C       1.361263     -0.144664     -0.031597
  C       0.195596      0.384942     -0.380212
  C      -1.109523     -0.084559      0.198285
  H       1.398408     -0.958986      0.678589
  H       2.288286      0.223405     -0.445270
  H       0.178606      1.195043     -1.098001
  H      -1.279013      0.420876      1.151188
  H      -1.090547     -1.155184      0.398790
  H      -1.943075      0.119128     -0.471771
9
Coordinates from ORCA-job test E -117.836843249381
  C       1.374407     -0.152297     -0.039907
  C       0.198535      0.381436     -0.366675
  C      -1.116974     -0.081008      0.202000
  H       1.431076     -0.984844      0.649635
  H       2.298368      0.226161     -0.452175
  H       0.176415      1.206159     -1.068806
  H      -1.331468      0.449540      1.129539
  H      -1.092211     -1.142890      0.431058
  H      -1.938148      0.097744     -0.484669
9
Coordinates from ORCA-job test E -117.837439425297
  C       1.384662     -0.166320     -0.055654
  C       0.202233      0.381702     -0.340867
  C      -1.121333     -0.076024      0.208158
  H       1.464826     -1.030862      0.591845
  H       2.304415      0.226665     -0.463503
  H       0.175459      1.236353     -1.007634
  H      -1.409110      0.505162      1.084303
  H      -1.080429     -1.122061      0.501104
  H      -1.920723      0.045385     -0.517752
9
Coordinates from ORCA-job test E -117.837887898382
  C       1.385234     -0.178784     -0.070865
  C       0.204409      0.387138     -0.317560
  C      -1.120315     -0.073069      0.213135
  H       1.476310     -1.071105      0.535896
  H       2.302881      0.224553     -0.472817
  H       0.177651      1.270895     -0.946249
  H      -1.466805      0.554051      1.035965
  H      -1.063753     -1.098843      0.571537
  H      -1.895613     -0.014836     -0.549041
9
Coordinates from ORCA-job test E -117.838308380327
  C       1.379063     -0.189674     -0.085990
  C       0.205707      0.397959     -0.296721
  C      -1.115928     -0.072091      0.217091
  H       1.469050     -1.106076      0.482822
  H       2.296701      0.219976     -0.481276
  H       0.183098      1.309262     -0.885400
  H      -1.509027      0.596083      0.986221
  H      -1.044516     -1.073102      0.640373
  H      -1.864149     -0.082337     -0.577118
9
Coordinates from ORCA-job test E -117.838572966582
  C       1.371057     -0.199423     -0.101904
  C       0.207277      0.413444     -0.278088
  C      -1.111616     -0.072105      0.220519
  H       1.449488     -1.137311      0.431675
  H       2.290778      0.213384     -0.489361
  H       0.191869      1.350068     -0.825527
  H      -1.544374      0.631130      0.935373
  H      -1.025479     -1.043342      0.706166
  H      -1.828999     -0.155845     -0.598853
9
Coordinates from ORCA-job test E -117.838636476541
  C       1.368716     -0.203556     -0.109689
  C       0.208690      0.422508     -0.271020
  C      -1.111203     -0.071793      0.221984
  H       1.436844     -1.150394      0.409318
  H       2.290493      0.209291     -0.492532
  H       0.197606      1.369489     -0.799812
  H      -1.560882      0.643681      0.912982
  H      -1.016323     -1.028103      0.733706
  H      -1.813942     -0.191123     -0.604936
9
Coordinates from ORCA-job test E -117.838651685033
  C       1.368628     -0.204238     -0.111402
  C       0.209331      0.426248     -0.270970
  C      -1.111770     -0.071379      0.222063
  H       1.429931     -1.152534      0.405940
  H       2.291762      0.207289     -0.492341
  H       0.199936      1.374926     -0.796305
  H      -1.564185      0.644413      0.910174
  H      -1.011457     -1.024796      0.737495
  H      -1.812177     -0.199930     -0.604654
9
Coordinates from ORCA-job test E -117.838654033750
  C       1.368840     -0.204010     -0.111138
  C       0.209422      0.426897     -0.272077
  C      -1.111963     -0.071023      0.221890
  H       1.427393     -1.151974      0.407202
  H       2.292518      0.206729     -0.491456
  H       0.200222      1.375093     -0.798237
  H      -1.563846      0.643012      0.911936
  H      -1.009090     -1.025107      0.735473
  H      -1.813496     -0.199617     -0.603592
9
Coordinates from ORCA-job test E -117.838654232853
  C       1.368831     -0.203861     -0.110933
  C       0.209409      0.426934     -0.272464
  C      -1.111841     -0.070851      0.221823
  H       1.426402     -1.151696      0.407758
  H       2.292685      0.206539     -0.491074
  H       0.200137      1.374894     -0.799098
  H      -1.563686      0.642444      0.912645
  H      -1.007946     -1.025328      0.734558
  H      -1.813992     -0.199076     -0.603214
9
Coordinates from ORCA-job test E -117.838654360737
  C       1.368777     -0.203781     -0.110861
  C       0.209395      0.426920     -0.272548
  C      -1.111695     -0.070812      0.221803
  H       1.425989     -1.151570      0.407959
  H       2.292696      0.206435     -0.490993
  H       0.200052      1.374809     -0.799345
  H      -1.563645      0.642248      0.912823
  H      -1.007493     -1.025425      0.734285
  H      -1.814076     -0.198825     -0.603122
9
Coordinates from ORCA-job test E -117.838654223907
  C       1.368766     -0.203756     -0.110867
  C       0.209399      0.426923     -0.272533
  C      -1.111639     -0.070827      0.221805
  H       1.425920     -1.151530      0.407987
  H       2.292699      0.206391     -0.491025
  H       0.200025      1.374809     -0.799338
  H      -1.563665      0.642221      0.912807
  H      -1.007463     -1.025448      0.734290
  H      -1.814042     -0.198782     -0.603126
