! AM1 Opt
* xyz 1   1
 C      1.12601371091379     0.59207274354007     0.73217989814793
 O     -0.03675709083138     1.30037751282404     0.21853625540130
 C     -1.25050996297254     0.76021904270700     0.72391742195466
 O     -2.31170613337990     1.62173257426805     0.30967799313117
 C     -1.49886129117310    -0.63236993368031     0.08833758850194
 N     -2.19175721834153    -0.42006209748349    -1.23689503749554
 C     -0.18820070057485    -1.39393784712324    -0.22158733428173
 O      0.13752617471523    -1.20242300331139    -1.61777537615171
 C      0.91099061489522    -0.95206367519301     0.74956474116116
 O      0.41854272471582    -1.30872960323964     2.05656303083946
 C      2.31920613764572     0.97923516986396    -0.14433224321456
 O      2.26936727920677     0.30076791923420    -1.39147809264565
 H      1.30125963747185     0.98234033072988     1.74997015623391
 H     -1.22822681301073     0.74025244327621     1.82354220216807
 H     -2.21112363823465     2.40582514337258     0.86980892565207
 H     -2.18463752279467    -1.19561882345587     0.72390999121217
 H     -2.94965835945288    -1.07244441439021    -1.45331128908993
 H     -0.34938614523159    -2.46131314465275    -0.10039871153806
 H      1.04114855453834    -0.80199513838081    -1.67542770005056
 H      1.86582364520799    -1.47041682927051     0.58690309571455
 H      1.08347263394747    -1.89527082162563     2.43981722390342
 H      3.27288959663444     0.66565497063534     0.33260050983117
 H      2.28893359562878     2.07790896513746    -0.32626179058068
 H      3.00884483896438     0.66709328848357    -1.90663615027098
 H     -1.45270842735591    -0.44765823073190    -1.97628992232474
 H     -2.54414506191341     0.54205204937450    -1.28306854010715
*

