#P B3LYP/aug-cc-pvdz
#  Units(Ang,Deg)

File generated by Gabedit
Quantum Mechanics Energy(kCal/mol) = 74.665447

1 1
C 1.129575 0.576411 0.738009
O -0.036523 1.287664 0.250702
C -1.239026 0.729454 0.743136
O -2.311184 1.610401 0.305714
C -1.509432 -0.633980 0.065054
N -2.149347 -0.370115 -1.289570
C -0.181122 -1.402215 -0.220732
O 0.155826 -1.201313 -1.599216
C 0.895080 -0.956379 0.788357
O 0.418676 -1.307460 2.088172
C 2.319614 0.949185 -0.166797
O 2.200566 0.326157 -1.447585
H 1.348907 0.974125 1.746891
H -1.239033 0.676615 1.837908
H -2.216215 2.420575 0.850046
H -2.237251 -1.229416 0.612813
H -2.848749 -1.055133 -1.550261
H -0.392758 -2.458078 -0.056855
H 1.048652 -0.810993 -1.648997
H 1.808092 -1.514666 0.606275
H 1.197410 -1.404433 2.713786
H 3.231242 0.599341 0.309347
H 2.337090 2.027966 -0.311286
H 2.912474 0.724153 -2.009177
H -1.402022 -0.378763 -2.009336
H -2.569234 0.568949 -1.279252

