#P B3LYP/aug-cc-pvdz
#  Units(Ang,Deg)

File generated by Gabedit
Quantum Mechanics Energy(kCal/mol) = 75.087496

1 1
C 1.124951 0.586698 0.734413
O -0.039378 1.300716 0.216694
C -1.251728 0.763375 0.723206
O -2.312295 1.623397 0.314099
C -1.500691 -0.631912 0.087194
N -2.189545 -0.424028 -1.236713
C -0.179917 -1.392758 -0.222382
O 0.141469 -1.198595 -1.619343
C 0.910639 -0.943753 0.753443
O 0.412758 -1.309850 2.058247
C 2.321514 0.974369 -0.145486
O 2.267713 0.299937 -1.396232
H 1.309158 0.973339 1.742147
H -1.244412 0.725144 1.818078
H -2.241038 2.426155 0.876644
H -2.182111 -1.196369 0.720645
H -2.945146 -1.079713 -1.471806
H -0.354981 -2.460933 -0.093401
H 1.041575 -0.796039 -1.682470
H 1.854728 -1.478261 0.589730
H 1.089418 -1.912002 2.463633
H 3.260886 0.687420 0.349063
H 2.295117 2.044116 -0.321016
H 3.016340 0.676784 -1.915711
H -1.477749 -0.476410 -1.965878
H -2.561063 0.559449 -1.258480

