! AM1 Opt
* xyz 1   1
 C      1.13132139034521     0.57503191685322     0.73583146932370
 O     -0.01821451081211     1.29805501089375     0.26957026096002
 C     -1.23412832170218     0.74067539919966     0.73741099809946
 O     -2.29553885863582     1.61908932196137     0.29994033883338
 C     -1.49630508490172    -0.63297798737086     0.05977147017737
 N     -2.15903861812647    -0.38224762500376    -1.28264580807674
 C     -0.18343296324456    -1.39751362269594    -0.20538721784384
 O      0.15392023183761    -1.24307479556124    -1.60278334720472
 C      0.90512661526750    -0.96396472100899     0.77640696000885
 O      0.39291741835492    -1.31576441966636     2.07051938645839
 C      2.30579873478828     0.96585836852400    -0.16176762319341
 O      2.18624453344533     0.34522585138099    -1.43581234746822
 H      1.32046548833875     0.94156992339513     1.76868574376895
 H     -1.24969279522042     0.66977945770603     1.83073918504850
 H     -2.19003456865326     2.42788139376017     0.82686778423433
 H     -2.22888759177878    -1.20531385871540     0.62876805597011
 H     -2.83760046375653    -1.11326248045956    -1.52171629489649
 H     -0.39344019732355    -2.45359128119468    -0.12124611669562
 H      1.05591179537284    -0.79934206099952    -1.66406579776626
 H      1.81924320847967    -1.51312436877465     0.59995359949010
 H      1.14641948576848    -1.41177093479132     2.64834083464619
 H      3.27116090813612     0.66666481590805     0.26575190277019
 H      2.35806145043489     2.05377879188352    -0.32952849411422
 H      2.87728183814750     0.72287149394239    -2.00199284514275
 H     -1.39161194176691    -0.39594352552290    -1.97038403609223
 H     -2.58714661633994     0.55391757958526    -1.24205952833779
*

