! AM1 Opt
* xyz 1   1
 C      1.13405064883963     0.58064628327755     0.73122792654270
 O     -0.02974235595678     1.28282780252081     0.26593269374907
 C     -1.25072727814421     0.74486722800731     0.72608903067352
 O     -2.30500202860661     1.60985344989003     0.30644120455433
 C     -1.49008330126244    -0.63904104216605     0.05963644008167
 N     -2.15232537805967    -0.37288946371492    -1.28564912051065
 C     -0.18726496747184    -1.40110598657917    -0.19926401943619
 O      0.15761497795186    -1.20972752645536    -1.60200099902390
 C      0.90206424931311    -0.96142738552091     0.77608325265607
 O      0.40589533922111    -1.31134287811541     2.08698923862182
 C      2.31638711650820     0.94394760490084    -0.16626785562478
 O      2.19281927013328     0.33111651574727    -1.44294760352409
 H      1.29909276724135     0.95713940650551     1.76542438072770
 H     -1.27258836469610     0.67132521960405     1.81806379566554
 H     -2.20683330358526     2.42191698277613     0.84767520320270
 H     -2.22305024129159    -1.20397424204012     0.64231373191838
 H     -2.84972503583666    -1.05679039342031    -1.55936690920552
 H     -0.39277366983399    -2.45874660743440    -0.13385799875080
 H      1.04250944067665    -0.79333489338409    -1.62947835189277
 H      1.82555610766541    -1.49588405286443     0.59388996721319
 H      1.21397231628626    -1.39561938407902     2.67777446458284
 H      3.29864940700195     0.66347785022300     0.26156463961696
 H      2.37196452677121     2.03836843560241    -0.34479272396540
 H      2.89655712900033     0.72350184761659    -2.01887494479430
 H     -1.36811633669177    -0.38843110127603    -1.96679009863601
 H     -2.53827306701892     0.58291992950726    -1.23121253026510
*

