#P B3LYP/aug-cc-pvdz
#  Units(Ang,Deg)

File generated by Gabedit
Quantum Mechanics Energy(kCal/mol) = 74.768268

1 1
C 1.124093 0.580289 0.728800
O -0.033857 1.275417 0.245666
C -1.249968 0.740287 0.719784
O -2.306825 1.596330 0.330212
C -1.506267 -0.634945 0.054508
N -2.162148 -0.371865 -1.289922
C -0.189416 -1.386989 -0.201023
O 0.149164 -1.203134 -1.606877
C 0.900180 -0.952693 0.779542
O 0.416900 -1.302082 2.098916
C 2.322594 0.943882 -0.160807
O 2.219933 0.326764 -1.440035
H 1.278096 0.961974 1.737174
H -1.258306 0.659097 1.812197
H -2.196197 2.415349 0.857987
H -2.245145 -1.212902 0.628867
H -2.846764 -1.059791 -1.594908
H -0.415636 -2.469912 -0.114710
H 1.046271 -0.832400 -1.610585
H 1.843817 -1.504015 0.573725
H 1.226874 -1.396980 2.687959
H 3.274570 0.644915 0.296346
H 2.385667 2.024079 -0.325660
H 2.943818 0.714576 -1.993673
H -1.384939 -0.356958 -1.977020
H -2.574677 0.572974 -1.245397

