#P B3LYP/aug-cc-pvdz
#  Units(Ang,Deg)

File generated by Gabedit
Quantum Mechanics Energy(kCal/mol) = 74.633968

1 1
C 1.131951 0.573794 0.744978
O -0.027410 1.298220 0.268878
C -1.240854 0.735149 0.725133
O -2.301295 1.617766 0.300162
C -1.503399 -0.628024 0.061401
N -2.144732 -0.378463 -1.273876
C -0.178009 -1.403242 -0.222289
O 0.153099 -1.228251 -1.595712
C 0.901531 -0.956736 0.780858
O 0.402706 -1.314693 2.071549
C 2.315776 0.974349 -0.162978
O 2.184231 0.332918 -1.442637
H 1.366386 0.942672 1.740915
H -1.253466 0.677890 1.818848
H -2.187959 2.416581 0.840369
H -2.224350 -1.218110 0.629436
H -2.846300 -1.088443 -1.521447
H -0.399636 -2.465735 -0.040271
H 1.056142 -0.780736 -1.629702
H 1.827871 -1.519927 0.611695
H 1.126756 -1.413882 2.683704
H 3.229064 0.634886 0.299161
H 2.344809 2.046245 -0.291987
H 2.873415 0.721486 -2.004760
H -1.407570 -0.386000 -1.995470
H -2.578923 0.560850 -1.261946

