! AM1 Opt
* xyz 1   1
 C      1.12541977864884     0.59324453519860     0.72687803049639
 O     -0.03526762578319     1.29930880041450     0.22034563196646
 C     -1.24731849313686     0.75767533981443     0.72494983067457
 O     -2.31112495527242     1.61872637556139     0.30453071338669
 C     -1.49670533339290    -0.63345461251787     0.08888358271661
 N     -2.19324987944164    -0.41495946944423    -1.23989920497824
 C     -0.19508718357880    -1.39300329608989    -0.22152225904078
 O      0.13358460879383    -1.20590199202311    -1.61558006790345
 C      0.91008936285845    -0.95784130879767     0.74738454729221
 O      0.42413866189886    -1.30646766794975     2.05328382169757
 C      2.31816124862060     0.98627027687139    -0.14091781018722
 O      2.26983401373576     0.30133051645452    -1.38778206018003
 H      1.28501712691460     0.97891130307469     1.73695455638675
 H     -1.21526476171911     0.74401855292232     1.82077652096125
 H     -2.18430045207666     2.41119038968707     0.87166211532273
 H     -2.19621225463773    -1.20275076670226     0.72236457124679
 H     -2.94062745056184    -1.07186450883078    -1.43476193697971
 H     -0.36064843835834    -2.48010724832905    -0.10533340042249
 H      1.03811463152394    -0.80898050396674    -1.66859535348192
 H      1.86740448844711    -1.46562950059270     0.58092984183855
 H      1.09719507916311    -1.90094239220759     2.44625578306638
 H      3.25243209790500     0.67168001120808     0.31642806580212
 H      2.30496495566248     2.07344160651539    -0.33152358654628
 H      3.01362301701384     0.66041733399979    -1.91602229801755
 H     -1.44082133295975    -0.44668148305982    -1.97185264529811
 H     -2.54530522777364     0.54534336549946    -1.28169025917998
*

