! AM1 Opt
* xyz 1   1
 C      1.13809796406221     0.57689240156582     0.73979312450753
 O     -0.02566551141063     1.29000541575998     0.26911034506182
 C     -1.25807057227908     0.74616592106155     0.71950312541945
 O     -2.29975670122645     1.61050438198824     0.30444569634851
 C     -1.49230638715118    -0.63658814486781     0.05574623672172
 N     -2.14457714232400    -0.37619059001162    -1.27380222673263
 C     -0.19662745324555    -1.40235351402072    -0.21400472887217
 O      0.15897646820282    -1.21779530833884    -1.59433127097616
 C      0.90397209642784    -0.95936757474133     0.77554379291960
 O      0.40294742926107    -1.31414712988965     2.07626112135433
 C      2.32244690954315     0.96736204773257    -0.16285140463115
 O      2.18544596854301     0.32898357570175    -1.44295312758365
 H      1.37452121641295     0.93915987400600     1.74846471346685
 H     -1.27455828259116     0.68418431813646     1.81316147446061
 H     -2.18252515875365     2.41478561487431     0.85363782601794
 H     -2.20502000051338    -1.19552340684478     0.68175956874673
 H     -2.84695080672242    -1.05819467085657    -1.54991113107519
 H     -0.36343703917793    -2.47756764654221    -0.05420723290417
 H      1.03336809823304    -0.78775145559877    -1.69008137974186
 H      1.84974315553356    -1.50208697668213     0.64757981660296
 H      1.18221650686158    -1.40979841015185     2.70267890042761
 H      3.26985883937964     0.59211539489905     0.27871685832471
 H      2.30479878131693     2.06715369323585    -0.31791796523822
 H      2.89129219304837     0.73447444176555    -2.00840788705899
 H     -1.39536124314498    -0.37825473382239    -1.99474458273827
 H     -2.55876324898170     0.57420602231747    -1.26551306567027
*

