! AM1 Opt
* xyz 1   1
 C      1.13179868959093     0.58011977932463     0.73577457772089
 O     -0.03045203700056     1.28123036303664     0.24366140187450
 C     -1.26032071072873     0.74253149699649     0.73411159786983
 O     -2.30389164995658     1.59626936681263     0.32221508584085
 C     -1.50753707415544    -0.64148444353859     0.05301050845263
 N     -2.15908738183960    -0.36738520187905    -1.29450292935265
 C     -0.19820643518999    -1.38913575653132    -0.20711700635859
 O      0.15110061840618    -1.20311146339173    -1.60327285511748
 C      0.90271130122957    -0.95321682050363     0.78537520193944
 O      0.42103468981784    -1.30509716687677     2.09842366243789
 C      2.31335123011773     0.94719093534711    -0.15685282296842
 O      2.21502096653410     0.32422538605964    -1.44638751340200
 H      1.31584997705756     0.95095331635654     1.75079783496860
 H     -1.25853620146214     0.67869717192617     1.82770343764760
 H     -2.19438973239453     2.39973245534491     0.85633934271349
 H     -2.22927051918707    -1.19485462414765     0.65046561938947
 H     -2.84067210142192    -1.07721122307522    -1.56203068946768
 H     -0.36882991975063    -2.45633673369397    -0.13378959068273
 H      1.07861278860522    -0.81642196682411    -1.65049336814682
 H      1.83596394890386    -1.47937178058942     0.63058747372417
 H      1.19088830861922    -1.39276764758979     2.66182467463513
 H      3.26501074795067     0.62218330422746     0.26611559561017
 H      2.39258568261002     2.02845494427794    -0.30402352370969
 H      2.92272704580160     0.71327105141681    -1.98722867008678
 H     -1.37540262774914    -0.37545403524198    -1.97305069314573
 H     -2.56486796156292     0.58172517687001    -1.24908092464637
*

