! AM1 Opt
* xyz 1   1
 C      1.13195149966420     0.57379382585961     0.74497848421768
 O     -0.02740951198834     1.29821982333059     0.26887760212636
 C     -1.24085359947828     0.73514856897452     0.72513291120741
 O     -2.30129518308887     1.61776578426218     0.30016151617107
 C     -1.50339880006209    -0.62802361318271     0.06140086347032
 N     -2.14473236183095    -0.37846320464963    -1.27387588369809
 C     -0.17800949211119    -1.40324161225714    -0.22228906243695
 O      0.15309862718922    -1.22825101155353    -1.59571225820241
 C      0.90153065274863    -0.95673604213211     0.78085828838470
 O      0.40270579340303    -1.31469267543670     2.07154886317259
 C      2.31577602825668     0.97434850696708    -0.16297827685125
 O      2.18423079746247     0.33291826086402    -1.44263728664465
 H      1.36638637071454     0.94267209591466     1.74091461934598
 H     -1.25346551312082     0.67788968372197     1.81884848335111
 H     -2.18795943147543     2.41658056472235     0.84036871177592
 H     -2.22435028221056    -1.21811016288849     0.62943601424468
 H     -2.84630035645213    -1.08844272831397    -1.52144724719759
 H     -0.39963563855718    -2.46573458867321    -0.04027099851377
 H      1.05614222205740    -0.78073577549403    -1.62970172293716
 H      1.82787108286937    -1.51992718731066     0.61169475657692
 H      1.12675617232102    -1.41388249960483     2.68370386294104
 H      3.22906416109906     0.63488563081383     0.29916072026455
 H      2.34480934476768     2.04624473494387    -0.29198683963228
 H      2.87341492103999     0.72148561595047    -2.00475994788071
 H     -1.40756980923063    -0.38599974068411    -1.99546965448605
 H     -2.57892267325772     0.56085045877296    -1.26194581090403
*

