! AM1 Opt
* xyz 1   1
 C      1.11881610635917     0.59308831726405     0.73258672159341
 O     -0.03850742597042     1.29499252519156     0.22127790199786
 C     -1.23557086979193     0.75283045165134     0.72347012615968
 O     -2.30278154800399     1.61059721003371     0.29759885087918
 C     -1.50058043252315    -0.63664427177214     0.08722887577636
 N     -2.19434796756854    -0.39427123765475    -1.24693288139513
 C     -0.20305386516113    -1.39925064875349    -0.22167928802323
 O      0.12201937510320    -1.21314780436769    -1.60804201658354
 C      0.90309102285619    -0.95084219516065     0.74629648666150
 O      0.44482378616424    -1.30635672995577     2.04812402732510
 C      2.31298275292750     1.00091996186695    -0.13142817536392
 O      2.26791801877677     0.30263909335513    -1.38565161709223
 H      1.27118074444122     0.96693389483809     1.76343923231225
 H     -1.23786615095901     0.69822276223144     1.82199328271496
 H     -2.18404321686721     2.44480725798773     0.80147287018808
 H     -2.21540523606873    -1.21231515351630     0.68467355932914
 H     -2.90618308839231    -1.08971606230554    -1.44216434897335
 H     -0.42808327334281    -2.45922844368949    -0.09527794522088
 H      1.02922422036692    -0.82267872340291    -1.66814880668170
 H      1.83714334978164    -1.49116744917085     0.55021469275390
 H      1.10030099865506    -1.88251498533903     2.49003929169577
 H      3.24932163888752     0.72986138979111     0.39785482333928
 H      2.36755838557293     2.09336597409036    -0.35416380665199
 H      3.00806454525496     0.64264147546381    -1.92933338922459
 H     -1.45492711520124    -0.50977902570719    -1.98929117667455
 H     -2.58143911194342     0.54680318228808    -1.20751353469500
*

