! AM1 Opt
* xyz 1   1
 C      1.13354341924015     0.57642818667380     0.73202811823694
 O     -0.01219341690962     1.29286340684288     0.26940837841670
 C     -1.24306446567521     0.75389481424409     0.73826005517299
 O     -2.28645093506437     1.61301719860945     0.30437836317436
 C     -1.48801696411942    -0.63823548871504     0.05696758169012
 N     -2.16474854464534    -0.38777624693856    -1.28258201934566
 C     -0.19927459674184    -1.39509644242511    -0.20663595852006
 O      0.15833387575469    -1.24674376872885    -1.60630855519014
 C      0.90406218891152    -0.96469759681726     0.76922874290612
 O      0.38933155208096    -1.31659963406676     2.07137814382059
 C      2.31692993754693     0.96861004821504    -0.16075529666827
 O      2.18631077658734     0.34917475968452    -1.43508476974594
 H      1.34792721260820     0.94728025647933     1.75698151263446
 H     -1.26303099025633     0.68931864409969     1.83363755426703
 H     -2.17590893616419     2.43338876423676     0.83102253868728
 H     -2.20312694532498    -1.18765562240439     0.68750032844851
 H     -2.84140286681563    -1.09076344824523    -1.56469414839989
 H     -0.37378956122848    -2.48539296947121    -0.07423415813490
 H      1.02875292277527    -0.82684816757850    -1.71191122254186
 H      1.85919460197685    -1.51547355324099     0.63090548193875
 H      1.16933343286574    -1.42080086138644     2.66346558686718
 H      3.27026851645310     0.63052475780486     0.25504861492040
 H      2.28784167721821     2.04522983411927    -0.33778115639452
 H      2.89562486746543     0.74407661248332    -1.98365770846583
 H     -1.40558336198786    -0.37308867651374    -1.99482869733962
 H     -2.59456297988996     0.55272828313278    -1.26529420567427
*

