#P B3LYP/aug-cc-pvdz
#  Units(Ang,Deg)

File generated by Gabedit
Quantum Mechanics Energy(kCal/mol) = 74.575099

1 1
C 1.126192 0.578082 0.732841
O -0.039123 1.276235 0.240774
C -1.238226 0.727905 0.716015
O -2.314638 1.602803 0.333522
C -1.509921 -0.629402 0.056431
N -2.160184 -0.373520 -1.286151
C -0.193062 -1.395427 -0.211606
O 0.147088 -1.203401 -1.600706
C 0.897463 -0.955280 0.777204
O 0.421467 -1.299066 2.093958
C 2.336290 0.950960 -0.161874
O 2.226172 0.326858 -1.435567
H 1.323678 0.979137 1.742746
H -1.232659 0.649234 1.807635
H -2.188952 2.417185 0.864969
H -2.234367 -1.215382 0.622019
H -2.854015 -1.067713 -1.596678
H -0.405328 -2.444620 -0.040496
H 1.063827 -0.820927 -1.669492
H 1.804027 -1.512833 0.591509
H 1.186392 -1.400554 2.688905
H 3.253410 0.610816 0.334052
H 2.322941 2.036282 -0.332238
H 2.941583 0.704838 -1.983037
H -1.406305 -0.339279 -1.993703
H -2.600758 0.565369 -1.258108

