#P B3LYP/aug-cc-pvdz
#  Units(Ang,Deg)

File generated by Gabedit
Quantum Mechanics Energy(kCal/mol) = 74.598489

1 1
C 1.133543 0.576428 0.732028
O -0.012193 1.292863 0.269408
C -1.243064 0.753895 0.738260
O -2.286451 1.613017 0.304378
C -1.488017 -0.638235 0.056968
N -2.164749 -0.387776 -1.282582
C -0.199275 -1.395096 -0.206636
O 0.158334 -1.246744 -1.606309
C 0.904062 -0.964698 0.769229
O 0.389332 -1.316600 2.071378
C 2.316930 0.968610 -0.160755
O 2.186311 0.349175 -1.435085
H 1.347927 0.947280 1.756982
H -1.263031 0.689319 1.833638
H -2.175909 2.433389 0.831023
H -2.203127 -1.187656 0.687500
H -2.841403 -1.090763 -1.564694
H -0.373790 -2.485393 -0.074234
H 1.028753 -0.826848 -1.711911
H 1.859195 -1.515474 0.630905
H 1.169333 -1.420801 2.663466
H 3.270269 0.630525 0.255049
H 2.287842 2.045230 -0.337781
H 2.895625 0.744077 -1.983658
H -1.405583 -0.373089 -1.994829
H -2.594563 0.552728 -1.265294

