! AM1 Opt
* xyz 1   1
 C      1.13178414111883     0.57624462162858     0.73690578869939
 O     -0.03542265941221     1.28825070046925     0.24594159666312
 C     -1.24449941803663     0.72988159167768     0.74589101346108
 O     -2.31013133522133     1.60775155112606     0.30820320743383
 C     -1.51157359110028    -0.63549561918818     0.06183725662314
 N     -2.14900238798052    -0.36845571004929    -1.29093926091689
 C     -0.18898270763773    -1.40040359107131    -0.22431282650251
 O      0.15464679729850    -1.20062021634511    -1.59717483746438
 C      0.89586062130547    -0.95500414125044     0.79037338566918
 O      0.42362716655245    -1.30704680547742     2.09069761046539
 C      2.31791337044007     0.95149195855612    -0.16413629447153
 O      2.20466411191655     0.32436926403128    -1.44923559296532
 H      1.37110234388368     0.96989769983521     1.74945177229423
 H     -1.23656293646741     0.68240333766026     1.84128172333378
 H     -2.20973077952601     2.40711198749226     0.85027174354121
 H     -2.23832193965573    -1.22625238569178     0.63397474207905
 H     -2.85208776038866    -1.06740820308753    -1.54797230854090
 H     -0.36971311913662    -2.45678124203592    -0.05065170205526
 H      1.07527649657543    -0.80527956182668    -1.68553299968369
 H      1.81579895674381    -1.50887293996064     0.63614084693022
 H      1.16425485668335    -1.40085374321363     2.68809493478651
 H      3.24083549439173     0.56392706756011     0.31403257543827
 H      2.32624154912795     2.05458172210240    -0.30471399476355
 H      2.90618952290768     0.71820662826339    -1.99364009168631
 H     -1.40378583595406    -0.37655757788609    -2.01065662450657
 H     -2.57681480670791     0.57575845552215    -1.28672214785260
*

