! AM1 Opt
* xyz 1   1
 C      1.13228520072744     0.57652701299998     0.72884392251115
 O     -0.03890250919007     1.28242345916035     0.22980828660965
 C     -1.24292951632716     0.72175185962136     0.72311432808077
 O     -2.31911116470473     1.60794733833702     0.33681972661898
 C     -1.51029481245835    -0.63358350052198     0.05069259544015
 N     -2.16369049029318    -0.37028833411939    -1.28831723805841
 C     -0.20265280363196    -1.39778662062809    -0.22050314600504
 O      0.14563395461132    -1.20817041753696    -1.59373564322796
 C      0.89141508042981    -0.95461960798969     0.77872020378812
 O      0.42387492669564    -1.29648303512449     2.08500651227491
 C      2.33415472540865     0.96140882470759    -0.15470440755918
 O      2.23429591033824     0.32322772622263    -1.43241677417996
 H      1.35620990320696     0.96213436657692     1.72541337367322
 H     -1.21587985058703     0.65615443398273     1.81744791171987
 H     -2.17328090551806     2.40277914475902     0.87613922685953
 H     -2.23216164188304    -1.20195834486017     0.65270134356475
 H     -2.82332999260603    -1.09571363041473    -1.54749083293149
 H     -0.37660032050891    -2.48307022617056    -0.04715105933481
 H      1.05707215652436    -0.81448478315621    -1.70535634657316
 H      1.83497615361124    -1.52275525107330     0.63346024979634
 H      1.17183907927132    -1.39886662665607     2.67513807458417
 H      3.25528589336606     0.61693574193899     0.31731777987711
 H      2.33385146100429     2.03915485391209    -0.30782382426750
 H      2.94574850778704     0.69736750001354    -1.97806845705811
 H     -1.40199853222095    -0.34027139699655    -1.99036075454653
 H     -2.61459536067452     0.55328671312124    -1.24688781645720
*

