! AM1 Opt
* xyz 1   1
 C      1.12441680853484     0.57708386431450     0.72772135173812
 O     -0.03016756753859     1.29123883090819     0.22330942772471
 C     -1.25260411994048     0.75775673305536     0.71187074957750
 O     -2.31417603674307     1.62888190654829     0.31677719805244
 C     -1.51333953905690    -0.63463776247930     0.07493657653030
 N     -2.18333997475588    -0.41292240413799    -1.26665057891124
 C     -0.20708659597863    -1.39054756873808    -0.21243622993535
 O      0.15050072677888    -1.17793605895783    -1.59844665573424
 C      0.89457540804940    -0.97159726011994     0.75941011471643
 O      0.44392393710613    -1.33648293665318     2.07445316653507
 C      2.31517122134805     0.95140466187662    -0.13420274943338
 O      2.24769400576276     0.31800990992926    -1.42428212731937
 H      1.29217109180347     0.95018247377409     1.74118577631831
 H     -1.23214568845957     0.72304334865531     1.81035596741899
 H     -2.18221686334743     2.39862109365704     0.89165234919080
 H     -2.23654345779272    -1.19610722533520     0.68546730388466
 H     -2.80669605050559    -1.16997123950218    -1.53647155889539
 H     -0.38460001788816    -2.46764897063260    -0.12382997341554
 H      1.07357480419028    -0.82329976582934    -1.63110328933193
 H      1.83548481507965    -1.50415102917473     0.57511321193733
 H      1.17539988627758    -1.16544404293082     2.68853840835638
 H      3.25992992230115     0.60194936946864     0.31242909018141
 H      2.40624450493430     2.05919875128840    -0.26614040050473
 H      2.96725655585241     0.70351489637229    -1.95775859475301
 H     -1.40317447640129    -0.31451137966604    -1.97210658975163
 H     -2.66706244068814     0.48908976560748    -1.22890910912280
*

