! AM1 Opt
* xyz 1   1
 C      1.12764467275593     0.59184176870650     0.73202624351746
 O     -0.03297125311264     1.28093390098845     0.22479532058192
 C     -1.25012655090731     0.74149804294277     0.72233908345125
 O     -2.30030900552317     1.60353754001752     0.28682516491249
 C     -1.51882233241421    -0.63303639971613     0.06654742811751
 N     -2.21145407040079    -0.37999642208943    -1.25739088238278
 C     -0.21036550724019    -1.39041992353867    -0.20959328367323
 O      0.10870807112923    -1.22535642395014    -1.60826189286671
 C      0.90412406416963    -0.94100803042782     0.74820823714077
 O      0.46453940281812    -1.31877318701931     2.06736414292825
 C      2.32149500266965     0.99809596680287    -0.13143695540863
 O      2.27131305392513     0.31325128528556    -1.37328636698110
 H      1.29125145841171     0.97011371791818     1.74410802660537
 H     -1.22893780391434     0.71428289447216     1.81512354990701
 H     -2.08903563134492     2.43939666763375     0.75801934807189
 H     -2.22508732034264    -1.19422003779652     0.67811762252258
 H     -2.90465777939814    -1.07728224775806    -1.53119248549580
 H     -0.37273122352801    -2.46571211370601    -0.07190006737159
 H      1.00561269419618    -0.81249040316482    -1.66977228716639
 H      1.85073023895364    -1.45475014458159     0.54870768290306
 H      1.22533898886243    -1.75385117472007     2.50233537587353
 H      3.28417283457470     0.76152981713136     0.31445443753765
 H      2.29002449904648     2.05465530052848    -0.33117735133550
 H      3.00232475284631     0.67064453471051    -1.91739406678456
 H     -1.44777202969208    -0.40348548547597    -1.97167957827081
 H     -2.62556909038183     0.56055353612376    -1.18360442358448
*

