! AM1 Opt
* xyz 1   1
 C      1.12619181891679     0.57808173451130     0.73284088337872
 O     -0.03912284724147     1.27623518351258     0.24077445600594
 C     -1.23822648680468     0.72790458283247     0.71601535593295
 O     -2.31463792533846     1.60280289254088     0.33352154059960
 C     -1.50992129811724    -0.62940238275208     0.05643060199018
 N     -2.16018394029077    -0.37351958056326    -1.28615125169046
 C     -0.19306163941131    -1.39542713173138    -0.21160620895330
 O      0.14708760970218    -1.20340077080137    -1.60070637449010
 C      0.89746294296419    -0.95527977460830     0.77720365369289
 O      0.42146736006372    -1.29906607551487     2.09395792431388
 C      2.33629035586428     0.95095961891251    -0.16187376427864
 O      2.22617243675505     0.32685779101376    -1.43556661299532
 H      1.32367806431579     0.97913655990227     1.74274584404371
 H     -1.23265939247184     0.64923403859951     1.80763466309934
 H     -2.18895166922550     2.41718522824695     0.86496930607784
 H     -2.23436735367142    -1.21538225098777     0.62201889745833
 H     -2.85401500573641    -1.06771318781974    -1.59667756633159
 H     -0.40532817373296    -2.44461986297753    -0.04049550226447
 H      1.06382703282494    -0.82092728225943    -1.66949159347394
 H      1.80402693583073    -1.51283288001210     0.59150880199952
 H      1.18639168588740    -1.40055411409067     2.68890463653191
 H      3.25340971357880     0.61081580499722     0.33405190706702
 H      2.32294119841369     2.03628207441576    -0.33223809460801
 H      2.94158285072739     0.70483753906407    -1.98303725008590
 H     -1.40630541414392    -0.33927941715107    -1.99370281646898
 H     -2.60075807388639     0.56536946567210    -1.25810801454632
*

