#P B3LYP/aug-cc-pvdz
#  Units(Ang,Deg)

File generated by Gabedit
Quantum Mechanics Energy(kCal/mol) = 74.600810

1 1
C 1.131321 0.575032 0.735831
O -0.018215 1.298055 0.269570
C -1.234128 0.740675 0.737411
O -2.295539 1.619089 0.299940
C -1.496305 -0.632978 0.059771
N -2.159039 -0.382248 -1.282646
C -0.183433 -1.397514 -0.205387
O 0.153920 -1.243075 -1.602783
C 0.905127 -0.963965 0.776407
O 0.392917 -1.315764 2.070519
C 2.305799 0.965858 -0.161768
O 2.186245 0.345226 -1.435812
H 1.320465 0.941570 1.768686
H -1.249693 0.669779 1.830739
H -2.190035 2.427881 0.826868
H -2.228888 -1.205314 0.628768
H -2.837600 -1.113262 -1.521716
H -0.393440 -2.453591 -0.121246
H 1.055912 -0.799342 -1.664066
H 1.819243 -1.513124 0.599954
H 1.146419 -1.411771 2.648341
H 3.271161 0.666665 0.265752
H 2.358061 2.053779 -0.329528
H 2.877282 0.722871 -2.001993
H -1.391612 -0.395944 -1.970384
H -2.587147 0.553918 -1.242060

