! AM1 Opt
* xyz 1   1
 C      1.12748059893694     0.59283470698312     0.73773030441383
 O     -0.03352219803739     1.27822566844056     0.22553214696805
 C     -1.24807673710399     0.73982667049303     0.71965175757433
 O     -2.30163825367709     1.60677345460228     0.28624642425288
 C     -1.52148723255671    -0.63554535104272     0.06989457849170
 N     -2.21547922607704    -0.37501330800767    -1.26088655723979
 C     -0.20860842947120    -1.38904398316020    -0.21120260596799
 O      0.10880622119407    -1.22614728772211    -1.60864330319951
 C      0.90571508134996    -0.94204762833523     0.75280924368928
 O      0.46886523378827    -1.32074482860532     2.06818895581549
 C      2.31889770040387     0.99408561378800    -0.13425824299289
 O      2.27195186006196     0.31521701065145    -1.37449052559994
 H      1.28765612259666     0.97263673193564     1.76273680085405
 H     -1.23839804600390     0.70624056620504     1.81836362930118
 H     -2.09210934742833     2.44526756186345     0.75459458236871
 H     -2.23289176204079    -1.20332610811919     0.66667059253344
 H     -2.88463620990263    -1.08692594524278    -1.53951532180080
 H     -0.39122082028325    -2.44866847639530    -0.07513149898488
 H      1.00435724709503    -0.81146769937204    -1.67251639967312
 H      1.84848136553286    -1.46487812230049     0.54837900593418
 H      1.23819892136485    -1.73021436483435     2.54325904334611
 H      3.29451731309370     0.76537368677741     0.33946028756185
 H      2.31365469039131     2.08010563798069    -0.34775088751349
 H      3.00255322442351     0.67546551178159    -1.92906611015441
 H     -1.44802305234649    -0.40774060063821    -1.97427922780378
 H     -2.63962791856965     0.55192199363083    -1.18174673789848
*

