! AM1 Opt
* xyz 1   1
 C      1.13465454176859     0.57708837486405     0.73256460322144
 O     -0.03647742002472     1.28516984812344     0.22491138116579
 C     -1.24939349862186     0.72491593379311     0.72761054313270
 O     -2.31862240651778     1.60769372181921     0.33934683118924
 C     -1.51018020205446    -0.63905894016357     0.04795643769905
 N     -2.16559735190481    -0.36852007443274    -1.28893513416912
 C     -0.20414881842871    -1.39988541260964    -0.21908703951387
 O      0.14383150263577    -1.21245112120187    -1.59395474637868
 C      0.89277525570811    -0.95494696883443     0.77847738674482
 O      0.42123738112449    -1.29549825799305     2.08101207536939
 C      2.32877031953675     0.96448686813478    -0.15019357600240
 O      2.23818884772041     0.32110209712240    -1.43058724292843
 H      1.34414471562501     0.95655602876840     1.73467200396786
 H     -1.22076991689794     0.66188489548692     1.82172521687942
 H     -2.16897178128353     2.40834487463388     0.88634603756596
 H     -2.22669871747273    -1.18988525211133     0.65409805137968
 H     -2.81853437933799    -1.12113393456381    -1.53340760885528
 H     -0.37141555744850    -2.47738708711239    -0.09261101028982
 H      1.05401294390555    -0.81168815309760    -1.67736670703482
 H      1.82817841100470    -1.50077738215606     0.63833676751724
 H      1.19070788674877    -1.39681563198290     2.67047045916083
 H      3.25911152244689     0.64442340282490     0.29390050968279
 H      2.36849849753578     2.03653123398506    -0.29578056660017
 H      2.95474329771206     0.69838811351733    -1.97770431424299
 H     -1.40010020512409    -0.34372547459192    -1.98344805825276
 H     -2.62467129875205     0.55689942659169    -1.23841257043564
*

