! AM1 Opt
* xyz 1   1
 C      1.11274554000000     0.61167000000000     0.68896654000000
 O     -0.07435304000000     1.26164203000000     0.23962355000000
 C     -1.24618531000000     0.69863339000000     0.78925000000000
 O     -2.29232305000000     1.55560669000000     0.43599796000000
 C     -1.54252838000000    -0.62747706000000     0.03338102000000
 N     -2.14101610000000    -0.27204632000000    -1.31832361000000
 C     -0.21673239000000    -1.41496774000000    -0.21134693000000
 O      0.09315816000000    -1.25739182000000    -1.56626733000000
 C      0.92109200000000    -0.92152355000000     0.71399642000000
 O      0.46184738000000    -1.21539715000000     2.01648846000000
 C      2.20025949000000     1.11034278000000    -0.26952019000000
 O      2.36924782000000     0.11342563000000    -1.26450417000000
 H      1.30994558000000     0.98127961000000     1.73015459000000
 H     -1.18058867000000     0.58443609000000     1.89479966000000
 H     -2.06651512000000     2.50430579000000     0.60876724000000
 H     -2.26965021000000    -1.24715620000000     0.61565764000000
 H     -2.29780022000000    -1.12197184000000    -1.88309744000000
 H     -0.38366012000000    -2.51198597000000    -0.07335229000000
 H      0.94219688000000    -0.73481567000000    -1.68208242000000
 H      1.87332980000000    -1.45274960000000     0.48079702000000
 H      1.05683099000000    -1.83794331000000     2.48956480000000
 H      3.17228866000000     1.23584538000000     0.25003358000000
 H      1.90010338000000     2.06515613000000    -0.74901867000000
 H      2.96605211000000     0.41998588000000    -1.98218466000000
 H     -1.45767758000000     0.32876486000000    -1.82322115000000
 H     -3.02235485000000     0.25655506000000    -1.19318112000000
*

