#P B3LYP/aug-cc-pvdz
#  Units(Ang,Deg)

File generated by Gabedit
Quantum Mechanics Energy(kCal/mol) = -88.341250

1 1
C 1.112746 0.611670 0.688967
O -0.074353 1.261642 0.239624
C -1.246185 0.698633 0.789250
O -2.292323 1.555607 0.435998
C -1.542528 -0.627477 0.033381
N -2.141016 -0.272046 -1.318324
C -0.216732 -1.414968 -0.211347
O 0.093158 -1.257392 -1.566267
C 0.921092 -0.921524 0.713996
O 0.461847 -1.215397 2.016488
C 2.200259 1.110343 -0.269520
O 2.369248 0.113426 -1.264504
H 1.309946 0.981280 1.730155
H -1.180589 0.584436 1.894800
H -2.066515 2.504306 0.608767
H -2.269650 -1.247156 0.615658
H -2.297800 -1.121972 -1.883097
H -0.383660 -2.511986 -0.073352
H 0.942197 -0.734816 -1.682082
H 1.873330 -1.452750 0.480797
H 1.056831 -1.837943 2.489565
H 3.172289 1.235845 0.250034
H 1.900103 2.065156 -0.749019
H 2.966052 0.419986 -1.982185
H -1.457678 0.328765 -1.823221
H -3.022355 0.256555 -1.193181

