#P B3LYP/6-31+G*
#  Units(Ang,Deg)

File generated by Gabedit
Quantum Mechanics Energy(kCal/mol) = 20.108542

1 1
C -1.516325 1.493695 -0.272414
O -1.723602 0.425245 -1.220402
C -1.229656 -0.856802 -0.766701
O -1.631742 -1.922160 -1.670266
C 0.312749 -0.834375 -0.581148
C 0.753375 0.420100 0.220053
O 2.134352 0.632748 -0.041557
C 0.005691 1.724890 -0.171101
O 0.230427 2.725654 0.859139
C -2.276150 2.738911 -0.787031
O -2.498204 3.682715 0.267060
H -1.924339 1.187120 0.695695
H -1.715963 -1.064103 0.198740
H 0.789563 -0.797422 -1.563804
H 0.604196 0.230939 1.287000
H 2.556667 0.810040 0.807275
H 0.364703 2.094196 -1.136701
H -3.249363 2.425986 -1.174703
H -1.717971 3.214869 -1.597786
H -1.660273 4.130687 0.488523
C -1.293942 -1.772584 -3.071001
H -1.703809 -2.624055 -3.619916
H -0.208846 -1.756013 -3.195457
H -1.729571 -0.848884 -3.460763
N 0.687738 -2.105981 0.073654
H -0.102261 -2.688759 0.306629
C 1.901680 -2.708771 0.144731
O 3.036048 -2.055939 0.070111
C 1.990124 -4.129766 0.652770
H 2.800959 -4.663454 0.151268
H 1.056902 -4.665425 0.462438
H 2.181099 -4.133744 1.728285
C 1.301315 3.550950 0.811873
O 2.090899 3.629961 -0.109709
C 1.332852 4.483667 1.999999
H 2.224786 5.113967 1.972808
H 1.339396 3.909008 2.929097
H 0.448076 5.124408 1.998774
H 2.866990 -1.098486 0.038365

