#P B3LYP/6-31+G*
#  Units(Ang,Deg)

File generated by Gabedit
Quantum Mechanics Energy(kCal/mol) = -169.014850

1 1
C -1.456740 1.091301 0.127122
O -1.642868 0.189587 -0.953941
C -1.237121 -1.118881 -0.656570
O -1.651221 -1.991455 -1.648899
C 0.344891 -1.095758 -0.621038
C 0.749920 -0.173437 0.541109
O 2.151603 0.003035 0.442592
C 0.048870 1.199188 0.452065
O 0.129021 1.684060 1.778627
C -2.041635 2.417927 -0.410380
O -1.823120 3.367693 0.608942
H -2.025745 0.752122 1.023758
H -1.687601 -1.506251 0.284999
H 0.716905 -0.677939 -1.596534
H 0.593578 -0.645846 1.543228
H 2.451386 0.932527 0.568148
H 0.572362 1.877027 -0.266174
H -3.142002 2.337916 -0.532351
H -1.588118 2.717121 -1.369510
H -1.345750 4.160200 0.263717
C -1.896959 -1.418770 -2.930075
H -2.135397 -2.305402 -3.534671
H -1.017613 -0.897692 -3.315782
H -2.763564 -0.745605 -2.878830
N 0.802307 -2.490303 -0.487589
H 0.045827 -3.189303 -0.434548
C 2.070426 -2.888398 -0.625864
O 3.061224 -2.050458 -0.745319
C 2.458263 -4.314692 -0.681826
H 3.453464 -4.451470 -1.166803
H 1.748213 -4.952004 -1.238746
H 2.570264 -4.752862 0.332728
C 0.357532 3.032636 1.959075
O 0.783050 3.705488 1.059771
C 0.043933 3.379301 3.362077
H 0.708651 4.174824 3.743719
H 0.110355 2.516467 4.047688
H -0.996610 3.758355 3.427951
H 2.857476 -1.066943 -0.422614

