#P B3LYP/6-31+G*
#  Units(Ang,Deg)

File generated by Gabedit
Quantum Mechanics Energy(kCal/mol) = -170.775880

1 1
C -1.490712 1.209552 0.057166
O -1.692876 0.281170 -0.997533
C -1.252180 -1.008596 -0.678226
O -1.725806 -1.932334 -1.595009
C 0.327513 -0.955019 -0.767378
C 0.811554 0.012189 0.317354
O 2.136350 0.358555 -0.109195
C 0.014244 1.333432 0.376446
O 0.093894 1.696716 1.746142
C -2.068094 2.524321 -0.523780
O -1.772469 3.554256 0.379537
H -2.058966 0.893979 0.962803
H -1.623823 -1.365398 0.307785
H 0.619328 -0.555913 -1.782868
H 0.880534 -0.461045 1.326337
H 2.557678 1.025101 0.492587
H 0.504184 2.097715 -0.281462
H -3.177493 2.487896 -0.551054
H -1.683420 2.731090 -1.537085
H -0.952399 4.038622 0.127665
C -2.008457 -1.437025 -2.900292
H -2.301836 -2.351008 -3.436989
H -1.129227 -0.972834 -3.351800
H -2.847468 -0.729383 -2.858147
N 0.800073 -2.346349 -0.649255
H 0.059212 -3.039144 -0.868851
C 2.055815 -2.768340 -0.460477
O 3.058642 -1.980352 -0.239457
C 2.398332 -4.210341 -0.473777
H 2.062979 -4.730009 -1.391429
H 1.971129 -4.757895 0.389112
H 3.500044 -4.369917 -0.416559
C 0.423448 2.997839 2.059637
O 0.830056 3.743333 1.209495
C 0.236712 3.216942 3.509340
H 0.892409 4.029084 3.876301
H 0.427784 2.319000 4.118380
H -0.806203 3.526531 3.725404
H 2.847549 -0.928406 -0.199647

