#P B3LYP/6-31+G*
#  Units(Ang,Deg)

File generated by Gabedit
Quantum Mechanics Energy(kCal/mol) = -170.219520

1 1
C -1.436215 1.045449 0.151549
O -1.643704 0.213514 -0.982706
C -1.198990 -1.096508 -0.782644
O -1.603658 -1.906424 -1.833830
C 0.387912 -1.062710 -0.757010
C 0.815100 -0.144658 0.391819
O 2.194868 0.141271 0.130828
C 0.082769 1.213822 0.351969
O 0.297205 1.725784 1.654036
C -2.140974 2.361827 -0.230855
O -2.207505 3.091014 0.979878
H -1.914983 0.608859 1.058981
H -1.635415 -1.563071 0.128179
H 0.761337 -0.637687 -1.733168
H 0.736697 -0.621489 1.396198
H 2.574139 0.737871 0.829327
H 0.534091 1.888974 -0.418131
H -3.183605 2.169579 -0.557393
H -1.596666 2.918380 -1.011798
H -2.071326 4.050938 0.804413
C -1.818948 -1.250057 -3.079502
H -2.026962 -2.092135 -3.754608
H -0.936921 -0.689198 -3.398125
H -2.694749 -0.591144 -3.004142
N 0.808307 -2.474301 -0.658963
H 0.071827 -3.128756 -0.986780
C 2.022173 -2.956385 -0.370067
O 3.030029 -2.221156 -0.025324
C 2.305686 -4.410032 -0.407240
H 2.986185 -4.666261 -1.249808
H 1.416640 -5.056128 -0.500756
H 2.851013 -4.742122 0.504266
C 0.261212 3.101290 1.809311
O 0.315635 3.828276 0.857811
C 0.202802 3.415517 3.254008
H 0.662145 4.397574 3.468720
H 0.700290 2.660598 3.883634
H -0.850896 3.465821 3.595542
H 2.850341 -1.159798 0.038567

