#P B3LYP/6-31+G*
#  Units(Ang,Deg)

File generated by Gabedit
Quantum Mechanics Energy(kCal/mol) = -170.228450

1 1
C -1.437509 1.046019 0.156985
O -1.637119 0.221115 -0.984664
C -1.199281 -1.092699 -0.784587
O -1.599886 -1.901466 -1.834638
C 0.387585 -1.065043 -0.750070
C 0.815693 -0.151210 0.402272
O 2.193476 0.140023 0.134697
C 0.081265 1.206597 0.365478
O 0.294143 1.716413 1.667550
C -2.134007 2.367319 -0.224126
O -2.205897 3.091024 0.989187
H -1.925811 0.606572 1.058532
H -1.643694 -1.556835 0.124700
H 0.764122 -0.637361 -1.723996
H 0.743240 -0.633935 1.404581
H 2.574187 0.742944 0.827527
H 0.536873 1.880249 -0.404406
H -3.174413 2.180595 -0.561021
H -1.581379 2.927652 -0.998034
H -2.061434 4.051574 0.819863
C -1.813257 -1.251755 -3.085810
H -2.017266 -2.099351 -3.755507
H -0.930787 -0.692941 -3.404968
H -2.691097 -0.595355 -3.018297
N 0.807986 -2.475940 -0.655349
H 0.072299 -3.130793 -0.980810
C 2.024956 -2.955656 -0.373633
O 3.031586 -2.218528 -0.028746
C 2.319362 -4.407542 -0.416661
H 3.011328 -4.651798 -1.252999
H 1.437091 -5.059154 -0.524641
H 2.856211 -4.741392 0.499358
C 0.267248 3.092325 1.817372
O 0.327739 3.814015 0.861353
C 0.208460 3.418394 3.258229
H 0.667938 4.401482 3.467248
H 0.704623 2.669500 3.894574
H -0.845186 3.471191 3.598071
H 2.852973 -1.158095 0.040991

