#P B3LYP/6-31+G*
#  Units(Ang,Deg)

File generated by Gabedit
Quantum Mechanics Energy(kCal/mol) = 21.313885

1 1
C -1.386257 1.513315 -0.809381
O -1.459455 0.520627 -1.856430
C -1.049240 -0.803997 -1.448063
O -1.347486 -1.785406 -2.478105
C 0.456998 -0.817623 -1.077044
C 0.762518 0.314309 -0.064437
O 2.156662 0.574278 -0.078915
C 0.092616 1.668691 -0.388806
O 0.144589 2.473336 0.823581
C -1.955411 2.825643 -1.392365
O -1.870848 3.877828 -0.432016
H -1.993655 1.183814 0.038919
H -1.653907 -1.075480 -0.569296
H 1.049462 -0.641876 -1.978595
H 0.455293 -0.010449 0.933970
H 2.377372 0.893682 0.802967
H 0.627500 2.171328 -1.200734
H -3.000527 2.680439 -1.678126
H -1.384631 3.107792 -2.281281
H -0.976552 3.824958 -0.032900
C -0.814918 -1.544737 -3.803238
H -1.166498 -2.337721 -4.467980
H 0.277071 -1.558915 -3.775581
H -1.167999 -0.579218 -4.174693
N 0.776474 -2.165573 -0.561533
H 0.003899 -2.813341 -0.600860
C 1.992769 -2.708588 -0.307249
O 3.038875 -1.978366 -0.009476
C 2.087484 -4.176984 0.038462
H 1.337462 -4.749010 -0.513015
H 1.920768 -4.323131 1.108102
H 3.075104 -4.567482 -0.218400
C 1.181237 3.308368 1.068239
O 2.083691 3.558710 0.292365
C 1.015909 4.022411 2.389293
H 1.883008 4.653245 2.598497
H 0.908769 3.296418 3.198564
H 0.121016 4.648606 2.368781
H 2.776300 -1.030719 0.006221

