#P B3LYP/6-31+G*
#  Units(Ang,Deg)

File generated by Gabedit
Quantum Mechanics Energy(kCal/mol) = -170.329720

1 1
C -1.449305 1.075925 0.120370
O -1.639813 0.212119 -0.992658
C -1.199386 -1.093679 -0.746559
O -1.615493 -1.948909 -1.753701
C 0.387081 -1.049687 -0.741798
C 0.805055 -0.133974 0.412947
O 2.182076 0.166656 0.154839
C 0.063498 1.220857 0.381841
O 0.220493 1.693108 1.707168
C -2.099214 2.398696 -0.339626
O -2.074786 3.232769 0.799421
H -1.975556 0.681038 1.020586
H -1.623937 -1.522488 0.188686
H 0.743941 -0.609308 -1.717564
H 0.729978 -0.620360 1.413722
H 2.555502 0.769769 0.851067
H 0.544735 1.914857 -0.354180
H -3.166148 2.243155 -0.600174
H -1.569376 2.849168 -1.195274
H -1.756837 4.135509 0.558497
C -1.874516 -1.353325 -3.021402
H -2.153281 -2.224658 -3.631514
H -0.986287 -0.854376 -3.416028
H -2.717941 -0.654035 -2.942789
N 0.830347 -2.455087 -0.664849
H 0.104851 -3.115817 -1.005982
C 2.050868 -2.922972 -0.381622
O 3.045366 -2.182712 -0.011562
C 2.364808 -4.370922 -0.459850
H 2.680841 -4.666569 -1.483486
H 1.529265 -5.031798 -0.171366
H 3.222984 -4.639313 0.198227
C 0.287771 3.061558 1.893628
O 0.496804 3.796426 0.968083
C 0.121147 3.362851 3.332201
H 0.761264 4.210628 3.638498
H 0.344875 2.507996 3.990479
H -0.928806 3.654694 3.540012
H 2.856323 -1.125477 0.065677

