#P B3LYP/6-31+G*
#  Units(Ang,Deg)

File generated by Gabedit
Quantum Mechanics Energy(kCal/mol) = 20.578332

1 1
C -1.340221 1.625359 -0.669076
O -1.498519 0.608842 -1.682691
C -1.085615 -0.711678 -1.261842
O -1.452900 -1.714254 -2.248229
C 0.437926 -0.746264 -0.966208
C 0.825626 0.420322 -0.021436
O 2.225649 0.633350 -0.113626
C 0.169087 1.774785 -0.377399
O 0.331812 2.657137 0.768426
C -1.953089 2.928574 -1.226499
O -1.906806 3.962228 -0.242852
H -1.877184 1.315820 0.232680
H -1.648420 -0.949997 -0.346410
H 0.987683 -0.626218 -1.903170
H 0.558878 0.149997 1.004407
H 2.520898 0.877433 0.771375
H 0.648321 2.208987 -1.260331
H -2.993853 2.753018 -1.511256
H -1.396363 3.247627 -2.111799
H -1.001153 3.966850 0.129407
C -0.990990 -1.514649 -3.606345
H -1.388895 -2.318950 -4.230111
H 0.100552 -1.543744 -3.638419
H -1.351498 -0.553847 -3.982869
N 0.747493 -2.079697 -0.408409
H -0.049162 -2.696699 -0.356765
C 1.958769 -2.660735 -0.224101
O 3.052598 -1.962911 -0.044556
C 2.025891 -4.116474 0.177155
H 1.211908 -4.679034 -0.286355
H 1.942380 -4.211872 1.262139
H 2.973502 -4.557626 -0.141099
C 1.403955 3.475624 0.877381
O 2.253802 3.642655 0.023600
C 1.357476 4.280148 2.155283
H 2.250898 4.901209 2.253487
H 1.299455 3.612605 3.018128
H 0.476598 4.926216 2.161020
H 2.826935 -1.008343 -0.041277

