#P B3LYP/6-31+G*
#  Units(Ang,Deg)

File generated by Gabedit
Quantum Mechanics Energy(kCal/mol) = -159.464260

1 1
C -1.411874 1.094877 0.119719
O -1.593957 0.202471 -0.973975
C -1.254349 -1.130286 -0.693227
O -1.594376 -1.947386 -1.760257
C 0.305183 -1.147462 -0.508849
C 0.647421 -0.284273 0.723142
O 2.054824 -0.273363 0.762914
C 0.080353 1.135903 0.516255
O 0.168377 1.704107 1.813211
C -1.923100 2.435296 -0.450953
O -2.212699 3.232685 0.678263
H -2.043502 0.781553 0.983983
H -1.816392 -1.534665 0.176220
H 0.780961 -0.697332 -1.426450
H 0.284330 -0.728664 1.679712
H 2.377580 0.448970 1.353633
H 0.696937 1.715967 -0.209761
H -2.882988 2.287935 -0.988558
H -1.189873 2.917861 -1.117692
H -1.821628 4.130828 0.571201
C -1.701789 -1.309191 -3.028407
H -1.886708 -2.158655 -3.700382
H -0.781249 -0.784546 -3.293778
H -2.559192 -0.622719 -3.030269
N 0.776437 -2.524569 -0.306911
H 0.170695 -3.143427 0.239223
C 1.933548 -2.947827 -0.789771
O 2.582745 -2.049983 -1.527408
C 2.488927 -4.295964 -0.571747
H 2.823783 -4.778934 -1.514245
H 1.784651 -5.015785 -0.110292
H 3.375277 -4.276070 0.101199
C 0.235919 3.076311 1.900027
O 0.408025 3.751849 0.921951
C 0.091648 3.480713 3.317278
H 0.698602 4.376969 3.540324
H 0.376705 2.688369 4.027971
H -0.963194 3.738561 3.537111
H 3.500616 -2.350327 -1.823768

