#P B3LYP/6-31+G*
#  Units(Ang,Deg)

File generated by Gabedit
Quantum Mechanics Energy(kCal/mol) = 15.005134

1 1
C -1.631722 1.567339 -0.123262
O -1.830480 0.454861 -1.030365
C -1.237453 -0.796285 -0.603825
O -1.596341 -1.881807 -1.501196
C 0.298002 -0.626267 -0.510498
C 0.620711 0.537870 0.456421
O 2.029295 0.783885 0.484393
C -0.105842 1.828424 0.011658
O 0.145144 2.832319 1.032353
C -2.417142 2.762874 -0.706373
O -2.707724 3.723820 0.309517
H -2.052068 1.292500 0.848939
H -1.654572 -1.044901 0.383816
H 0.669488 -0.347893 -1.500081
H 0.288509 0.270513 1.463827
H 2.378653 0.439339 1.325992
H 0.308014 2.149861 -0.948724
H -3.364917 2.403907 -1.116664
H -1.847285 3.233363 -1.511907
H -1.871424 4.135721 0.592040
C -1.290710 -1.712898 -2.906717
H -1.664164 -2.584130 -3.450618
H -0.209621 -1.639119 -3.046951
H -1.780526 -0.812497 -3.286512
N 0.937541 -1.887428 -0.099945
H 0.454760 -2.423906 0.605073
C 2.109230 -2.370780 -0.574235
O 2.759811 -1.754880 -1.529340
C 2.646786 -3.702957 -0.104026
H 2.958887 -4.310093 -0.957094
H 1.883283 -4.254096 0.450315
H 3.508225 -3.549351 0.549601
C 0.353656 4.126419 0.696412
O 0.383674 4.566428 -0.436959
C 0.571149 4.988304 1.917958
H 0.739733 6.029014 1.631588
H 1.438739 4.633448 2.479018
H -0.303090 4.941294 2.571321
H 3.534391 -2.302838 -1.756710

