#P B3LYP/6-31+G*
#  Units(Ang,Deg)

File generated by Gabedit
Quantum Mechanics Energy(kCal/mol) = -170.386900

1 1
C -1.466940 1.084883 0.121110
O -1.658633 0.201546 -0.976449
C -1.208593 -1.097062 -0.714666
O -1.635663 -1.972634 -1.700563
C 0.376848 -1.036964 -0.730602
C 0.795183 -0.120447 0.423225
O 2.169162 0.188454 0.161140
C 0.043906 1.231148 0.398915
O 0.170777 1.685931 1.732685
C -2.106585 2.399266 -0.380109
O -1.953442 3.329204 0.667270
H -2.001462 0.709305 1.024056
H -1.617789 -1.514790 0.231925
H 0.720791 -0.590250 -1.707732
H 0.725819 -0.609839 1.422913
H 2.546412 0.777013 0.867422
H 0.531199 1.936774 -0.321332
H -3.199875 2.274226 -0.523631
H -1.648472 2.748239 -1.319905
H -1.479732 4.136011 0.351735
C -1.896815 -1.406941 -2.980695
H -2.184910 -2.290225 -3.568880
H -1.007761 -0.924048 -3.391787
H -2.734518 -0.699237 -2.916455
N 0.830902 -2.438048 -0.662212
H 0.099192 -3.104378 -0.977886
C 2.063192 -2.897397 -0.415739
O 3.061300 -2.149754 -0.070886
C 2.375666 -4.343619 -0.511943
H 2.705780 -4.625326 -1.534718
H 1.532138 -5.006229 -0.251633
H 3.222227 -4.626772 0.153568
C 0.310111 3.045039 1.945642
O 0.627892 3.778305 1.050263
C 0.067995 3.333531 3.376155
H 0.790049 4.074720 3.763669
H 0.113340 2.440256 4.019603
H -0.944741 3.765762 3.511848
H 2.859332 -1.096649 0.027620

