#P B3LYP/6-31+G*
#  Units(Ang,Deg)

File generated by Gabedit
Quantum Mechanics Energy(kCal/mol) = 19.807886

1 1
C -1.403005 1.594180 -0.517938
O -1.582225 0.544123 -1.492687
C -1.159195 -0.760256 -1.029805
O -1.533765 -1.798332 -1.975842
C 0.367740 -0.787729 -0.744520
C 0.779363 0.430346 0.123298
O 2.182132 0.607254 -0.008086
C 0.114822 1.766315 -0.300822
O 0.307235 2.740385 0.761569
C -2.068404 2.873853 -1.073605
O -2.229877 3.855309 -0.044755
H -1.893959 1.297029 0.413866
H -1.713543 -0.966713 -0.101572
H 0.909922 -0.732385 -1.691822
H 0.529649 0.223370 1.167932
H 2.518541 0.793018 0.876021
H 0.558135 2.133203 -1.231689
H -3.055873 2.622561 -1.469864
H -1.463805 3.288394 -1.884807
H -1.349754 4.109857 0.292526
C -1.093544 -1.641999 -3.346930
H -1.494217 -2.470129 -3.936818
H -0.002461 -1.663908 -3.394973
H -1.467309 -0.697479 -3.750754
N 0.669366 -2.087014 -0.106637
H -0.144477 -2.664594 0.041931
C 1.866463 -2.708321 0.043739
O 3.008383 -2.065852 0.083124
C 1.899183 -4.143674 0.516840
H 2.725683 -4.680448 0.045162
H 0.967507 -4.654787 0.262269
H 2.031480 -4.179934 1.600564
C 1.399108 3.538797 0.790441
O 2.243172 3.611551 -0.082112
C 1.385379 4.450477 1.995086
H 2.291886 5.059285 2.029199
H 1.326037 3.860425 2.912581
H 0.517316 5.112531 1.955804
H 2.847274 -1.104419 0.062987

