#P B3LYP/6-31+G*
#  Units(Ang,Deg)

File generated by Gabedit
Quantum Mechanics Energy(kCal/mol) = 13.321339

1 1
C -1.740925 1.327405 0.207930
O -1.571515 0.362882 -0.858166
C -1.045891 -0.915784 -0.427485
O -1.023671 -1.869141 -1.524389
C 0.367163 -0.720925 0.176681
C 0.308286 0.319379 1.323863
O 1.632538 0.597417 1.783849
C -0.360359 1.631530 0.839572
O -0.585106 2.516233 1.970832
C -2.419485 2.587737 -0.374163
O -1.615971 3.174823 -1.399928
H -2.399988 0.890711 0.964134
H -1.731947 -1.318227 0.333166
H 1.021537 -0.321749 -0.602660
H -0.275565 -0.094142 2.151255
H 2.126316 1.003091 1.048395
H 0.274123 2.124896 0.097468
H -2.583300 3.321055 0.419723
H -3.389929 2.312723 -0.795551
H -1.484923 2.510732 -2.100027
C -0.304900 -1.488787 -2.723033
H -0.427795 -2.279277 -3.467553
H 0.757913 -1.370259 -2.498953
H -0.711279 -0.553991 -3.117938
N 0.904383 -2.013874 0.632375
H 0.232867 -2.671115 0.999819
C 2.206582 -2.378526 0.618661
O 3.122088 -1.595823 0.105730
C 2.625450 -3.753666 1.085738
H 3.708401 -3.878859 1.010135
H 2.144029 -4.520698 0.474872
H 2.331833 -3.901762 2.127384
C 0.364780 3.396227 2.363735
O 1.411723 3.609786 1.782551
C -0.080062 4.191859 3.568530
H 0.717109 4.857756 3.907227
H -0.344376 3.518723 4.387359
H -0.958408 4.791742 3.319622
H 2.680313 -0.773580 -0.170516

