#P B3LYP/6-31+G*
#  Units(Ang,Deg)

File generated by Gabedit
Quantum Mechanics Energy(kCal/mol) = 20.735869

1 1
C -1.562503 1.397107 -0.075343
O -1.804298 0.323533 -1.010152
C -1.267346 -0.952855 -0.589594
O -1.692212 -2.018029 -1.482921
C 0.281768 -0.908608 -0.472045
C 0.736102 0.352901 0.310626
O 2.104912 0.599199 0.004075
C -0.035622 1.643100 -0.067465
O 0.302383 2.645026 0.930199
C -2.398114 2.613623 -0.539625
O -2.696869 3.484185 0.557789
H -1.901998 1.078006 0.914898
H -1.706585 -1.175002 0.394895
H 0.716204 -0.864384 -1.473809
H 0.623243 0.168299 1.382889
H 2.567287 0.746729 0.839034
H 0.290941 1.970543 -1.059253
H -3.345964 2.254193 -0.949313
H -1.873372 3.163762 -1.324761
H -1.953740 4.098668 0.704959
C -1.421989 -1.850985 -2.896391
H -1.840902 -2.705561 -3.433521
H -0.344286 -1.812909 -3.070447
H -1.892014 -0.932572 -3.257676
N 0.698263 -2.176489 0.164375
H -0.074869 -2.767257 0.431324
C 1.917918 -2.770564 0.169278
O 3.039469 -2.102638 0.056058
C 2.041285 -4.192250 0.667831
H 2.913770 -4.679139 0.225461
H 1.153230 -4.769682 0.399747
H 2.148783 -4.201752 1.754795
C 0.446744 3.946774 0.590055
O 0.377900 4.394458 -0.538510
C 0.748437 4.804954 1.796293
H 0.871546 5.850825 1.505517
H 1.666581 4.464530 2.280548
H -0.067370 4.735806 2.519552
H 2.852434 -1.149255 0.041830

