#P B3LYP/6-31+G*
#  Units(Ang,Deg)

File generated by Gabedit
Quantum Mechanics Energy(kCal/mol) = -170.366440

1 1
C -1.460173 1.083345 0.117313
O -1.639113 0.207578 -0.988795
C -1.203027 -1.095385 -0.721215
O -1.627200 -1.968705 -1.708699
C 0.383089 -1.044805 -0.719414
C 0.792572 -0.133699 0.442701
O 2.170355 0.170638 0.193457
C 0.047268 1.220698 0.416110
O 0.162932 1.676759 1.751506
C -2.088946 2.404580 -0.378648
O -1.983258 3.300391 0.705635
H -2.008784 0.704640 1.011157
H -1.621125 -1.506755 0.224796
H 0.740519 -0.594099 -1.689726
H 0.712699 -0.626857 1.439494
H 2.539076 0.769718 0.895483
H 0.548570 1.925949 -0.295033
H -3.173966 2.271587 -0.571784
H -1.594980 2.787079 -1.287341
H -1.551074 4.141447 0.423562
C -1.866136 -1.404962 -2.995099
H -2.143084 -2.290366 -3.586997
H -0.971041 -0.919232 -3.390809
H -2.707527 -0.700798 -2.942031
N 0.827541 -2.449245 -0.653323
H 0.100787 -3.107437 -0.997151
C 2.048257 -2.919956 -0.370585
O 3.041932 -2.179212 0.001399
C 2.356684 -4.367976 -0.454284
H 2.654785 -4.663552 -1.483824
H 1.521235 -5.025243 -0.151298
H 3.225070 -4.638488 0.190151
C 0.301743 3.037596 1.956180
O 0.612328 3.765335 1.053800
C 0.064663 3.338177 3.384713
H 0.770290 4.105121 3.753112
H 0.142019 2.455687 4.040621
H -0.958553 3.745582 3.520398
H 2.849576 -1.123848 0.090619

