#P B3LYP/6-31+G*
#  Units(Ang,Deg)

File generated by Gabedit
Quantum Mechanics Energy(kCal/mol) = 20.387662

1 1
C -1.341107 1.613565 -0.698873
O -1.515803 0.575269 -1.687899
C -1.107768 -0.739150 -1.240649
O -1.484681 -1.760395 -2.203883
C 0.416937 -0.779111 -0.948319
C 0.816104 0.409510 -0.037732
O 2.218116 0.598120 -0.136098
C 0.172591 1.759975 -0.434483
O 0.356966 2.686758 0.671836
C -1.958533 2.909033 -1.270459
O -1.960516 3.944321 -0.285356
H -1.865319 1.323494 0.216786
H -1.668906 -0.954449 -0.318524
H 0.965012 -0.689535 -1.889649
H 0.546104 0.172386 0.995426
H 2.508573 0.888619 0.735183
H 0.643949 2.154351 -1.340025
H -2.988342 2.715783 -1.582356
H -1.385509 3.238337 -2.141475
H -1.053196 4.018615 0.073177
C -1.028118 -1.591662 -3.567990
H -1.432706 -2.406983 -4.172865
H 0.063102 -1.626646 -3.604491
H -1.385846 -0.637286 -3.963056
N 0.718155 -2.099126 -0.354210
H -0.084643 -2.706405 -0.285310
C 1.923102 -2.692216 -0.160724
O 3.032007 -2.012563 0.002551
C 1.968460 -4.141793 0.265393
H 2.900726 -4.607678 -0.062777
H 1.134665 -4.696018 -0.172268
H 1.904067 -4.216318 1.353314
C 1.441757 3.492905 0.738158
O 2.287742 3.610151 -0.127710
C 1.417607 4.350953 1.981377
H 2.319367 4.964425 2.044965
H 1.360019 3.721013 2.872073
H 0.544693 5.007643 1.968127
H 2.833835 -1.053256 -0.003150

