#P B3LYP/6-31+G*
#  Units(Ang,Deg)

File generated by Gabedit
Quantum Mechanics Energy(kCal/mol) = -170.323560

1 1
C -1.457091 1.075960 0.123172
O -1.650307 0.213099 -0.989736
C -1.211760 -1.093175 -0.745455
O -1.630091 -1.944573 -1.754632
C 0.375304 -1.049175 -0.740559
C 0.795066 -0.136642 0.415562
O 2.173689 0.162263 0.162535
C 0.056412 1.220310 0.380293
O 0.216501 1.697170 1.701976
C -2.115777 2.396416 -0.331789
O -2.071838 3.236061 0.803041
H -1.978024 0.678525 1.025597
H -1.637346 -1.523006 0.189111
H 0.730014 -0.605618 -1.715286
H 0.716396 -0.623073 1.415698
H 2.543566 0.765897 0.860502
H 0.539186 1.910002 -0.357861
H -3.187907 2.237056 -0.569463
H -1.606501 2.844914 -1.200219
H -1.741892 4.132550 0.557941
C -1.877687 -1.344386 -3.023728
H -2.156756 -2.211399 -3.639597
H -0.985816 -0.846944 -3.410152
H -2.719914 -0.643769 -2.949547
N 0.817840 -2.454769 -0.666964
H 0.089354 -3.112725 -1.006671
C 2.037431 -2.925374 -0.383641
O 3.034080 -2.188710 -0.014838
C 2.346285 -4.373853 -0.460302
H 2.730011 -4.656229 -1.463772
H 1.491416 -5.035266 -0.240174
H 3.157277 -4.655888 0.248834
C 0.281885 3.066596 1.885637
O 0.492124 3.800625 0.960146
C 0.115269 3.364482 3.324885
H 0.736837 4.226421 3.628607
H 0.363249 2.513284 3.979244
H -0.939877 3.629626 3.539674
H 2.846494 -1.131854 0.068729

