#P B3LYP/6-31+G*
#  Units(Ang,Deg)

File generated by Gabedit
Quantum Mechanics Energy(kCal/mol) = 13.971269

1 1
C -1.683492 1.256090 0.089199
O -1.544996 0.261371 -0.952422
C -1.079473 -1.030614 -0.498179
O -1.109048 -2.006111 -1.575547
C 0.345067 -0.882197 0.087609
C 0.329426 0.168984 1.224780
O 1.663636 0.420115 1.669732
C -0.297578 1.500790 0.741996
O -0.482098 2.370299 1.892998
C -2.249927 2.524931 -0.583840
O -2.615972 3.490747 0.399260
H -2.392519 0.882922 0.834324
H -1.776717 -1.384880 0.276126
H 1.004686 -0.512574 -0.702051
H -0.257761 -0.221360 2.061042
H 2.114860 0.935192 0.975630
H 0.354965 1.981827 0.007123
H -3.135425 2.264655 -1.169835
H -1.500312 2.954284 -1.254085
H -1.844176 3.612318 0.983226
C -0.381473 -1.684426 -2.786167
H -0.544631 -2.484211 -3.512810
H 0.687034 -1.609295 -2.570411
H -0.747669 -0.740839 -3.199052
N 0.841787 -2.189950 0.546434
H 0.146644 -2.843034 0.875334
C 2.134617 -2.585254 0.540557
O 3.079783 -1.781884 0.124324
C 2.528984 -3.964926 1.014991
H 3.444251 -4.296203 0.518553
H 1.737418 -4.684978 0.794329
H 2.700594 -3.954633 2.093569
C 0.484815 3.236683 2.274730
O 1.521575 3.445917 1.674169
C 0.070341 4.027250 3.493535
H -0.805560 4.638695 3.264847
H 0.880726 4.681553 3.823317
H -0.187097 3.350422 4.311498
H 2.651991 -0.936993 -0.106135

