#P B3LYP/6-31+G*
#  Units(Ang,Deg)

File generated by Gabedit
Quantum Mechanics Energy(kCal/mol) = 20.714193

1 1
C -1.321595 1.578667 -0.767811
O -1.443169 0.553682 -1.778154
C -1.046748 -0.763751 -1.332526
O -1.380161 -1.773929 -2.323173
C 0.465465 -0.796249 -0.983885
C 0.818299 0.375354 -0.032248
O 2.220093 0.589899 -0.076195
C 0.175342 1.727940 -0.417725
O 0.294018 2.612634 0.731842
C -1.907667 2.878321 -1.361400
O -1.877899 3.927173 -0.393397
H -1.894629 1.278880 0.114819
H -1.641340 -0.994429 -0.435416
H 1.047496 -0.680313 -1.901689
H 0.515721 0.109946 0.984907
H 2.478689 0.859916 0.812462
H 0.688716 2.159899 -1.282394
H -2.941820 2.707357 -1.671850
H -1.324100 3.178585 -2.235925
H -0.983778 3.925222 0.006478
C -0.870106 -1.585848 -3.665599
H -1.246691 -2.394788 -4.296562
H 0.221851 -1.616334 -3.658624
H -1.215760 -0.627761 -4.062421
N 0.756851 -2.126439 -0.408718
H -0.038871 -2.746462 -0.388291
C 1.961537 -2.702225 -0.171608
O 3.044424 -2.000010 0.052576
C 2.016376 -4.156118 0.238143
H 1.225106 -4.723486 -0.257706
H 1.886490 -4.247537 1.318904
H 2.978360 -4.595062 -0.037147
C 1.360446 3.432552 0.879493
O 2.241421 3.599250 0.057775
C 1.264983 4.239601 2.153063
H 2.153411 4.861871 2.283588
H 1.175187 3.573742 3.014486
H 0.383836 4.884689 2.124254
H 2.816905 -1.045485 0.041323

