#P B3LYP/6-31+G*
#  Units(Ang,Deg)

File generated by Gabedit
Quantum Mechanics Energy(kCal/mol) = 20.898461

1 1
C -1.391249 1.589691 -0.839141
O -1.481628 0.586905 -1.874865
C -1.066884 -0.733598 -1.458877
O -1.379933 -1.724963 -2.474929
C 0.444307 -0.743833 -1.109106
C 0.763700 0.395556 -0.107890
O 2.160051 0.648904 -0.131234
C 0.094513 1.747935 -0.442863
O 0.166914 2.571378 0.755673
C -1.970332 2.895444 -1.426365
O -1.883582 3.952050 -0.471844
H -1.985491 1.268788 0.021697
H -1.659335 -0.995891 -0.569065
H 1.024187 -0.573991 -2.019944
H 0.460335 0.081556 0.895117
H 2.400685 0.937634 0.756839
H 0.619102 2.235704 -1.270379
H -3.016882 2.744141 -1.703614
H -1.407003 3.175125 -2.320792
H -0.988311 3.899020 -0.075744
C -0.864089 -1.498730 -3.809188
H -1.225701 -2.297672 -4.461294
H 0.228144 -1.514835 -3.795428
H -1.220113 -0.536288 -4.185784
N 0.770976 -2.087584 -0.588333
H -0.008760 -2.727868 -0.580206
C 1.993498 -2.635249 -0.381871
O 3.055515 -1.903467 -0.156191
C 2.099533 -4.098059 -0.016560
H 1.314189 -4.674080 -0.511840
H 1.996499 -4.224423 1.063571
H 3.067545 -4.499932 -0.325236
C 1.208817 3.407956 0.970816
O 2.100338 3.642893 0.177647
C 1.065716 4.143040 2.282891
H 1.936456 4.776468 2.467696
H 0.971572 3.430066 3.105250
H 0.170922 4.769521 2.267215
H 2.788620 -0.957213 -0.138483

