#P B3LYP/6-31+G*
#  Units(Ang,Deg)

File generated by Gabedit
Quantum Mechanics Energy(kCal/mol) = 19.814349

1 1
C -1.459060 1.555004 -0.387143
O -1.651254 0.490919 -1.343406
C -1.198289 -0.800741 -0.874303
O -1.585778 -1.857201 -1.794503
C 0.336250 -0.805901 -0.631539
C 0.764367 0.435179 0.196560
O 2.159615 0.624984 0.003829
C 0.062111 1.754748 -0.223880
O 0.268910 2.749719 0.815882
C -2.168564 2.815914 -0.932577
O -2.372688 3.781483 0.104487
H -1.912689 1.258658 0.563681
H -1.723846 -1.000552 0.071961
H 0.850443 -0.768252 -1.595151
H 0.560253 0.244624 1.254129
H 2.541510 0.792442 0.873672
H 0.467738 2.115524 -1.174121
H -3.145222 2.531193 -1.333068
H -1.579536 3.260442 -1.739340
H -1.509619 4.132689 0.394009
C -1.190190 -1.713422 -3.180568
H -1.595578 -2.555817 -3.746550
H -0.100906 -1.719157 -3.262096
H -1.591056 -0.780581 -3.585556
N 0.666492 -2.088208 0.026153
H -0.139823 -2.661042 0.225459
C 1.868954 -2.706586 0.139948
O 3.011383 -2.064698 0.112190
C 1.920342 -4.129094 0.648705
H 2.797801 -4.645708 0.252362
H 1.028663 -4.679281 0.338614
H 1.973014 -4.136568 1.739738
C 1.353444 3.558387 0.805424
O 2.175065 3.625129 -0.088762
C 1.359749 4.489753 1.994983
H 2.260992 5.107265 1.997415
H 1.327921 3.914446 2.923153
H 0.484730 5.143111 1.965757
H 2.849436 -1.105523 0.072615

