#P B3LYP/6-31+G*
#  Units(Ang,Deg)

File generated by Gabedit
Quantum Mechanics Energy(kCal/mol) = -170.409010

1 1
C -1.459806 1.091578 0.106161
O -1.645635 0.200774 -0.985789
C -1.207801 -1.097337 -0.707971
O -1.639252 -1.978066 -1.688139
C 0.378180 -1.048373 -0.719342
C 0.795576 -0.128407 0.432375
O 2.171453 0.176386 0.169921
C 0.047574 1.224613 0.408642
O 0.153449 1.667007 1.749478
C -2.076802 2.411194 -0.410354
O -1.939509 3.334097 0.644738
H -2.012735 0.729628 1.003767
H -1.619066 -1.502962 0.243663
H 0.725564 -0.606455 -1.697624
H 0.725159 -0.617603 1.432268
H 2.550635 0.769055 0.871833
H 0.549709 1.936286 -0.294378
H -3.167251 2.296377 -0.577523
H -1.596491 2.759977 -1.338194
H -1.443644 4.133128 0.349581
C -1.878910 -1.419826 -2.976366
H -2.157472 -2.306905 -3.563088
H -0.983979 -0.939312 -3.376850
H -2.718290 -0.712435 -2.930030
N 0.826758 -2.450452 -0.644408
H 0.099715 -3.114146 -0.975716
C 2.053616 -2.914606 -0.375775
O 3.047427 -2.168370 -0.013852
C 2.370529 -4.359256 -0.463879
H 2.606197 -4.667820 -1.502881
H 1.563557 -5.019446 -0.102851
H 3.277566 -4.616466 0.127881
C 0.303863 3.021905 1.975224
O 0.638312 3.758437 1.089253
C 0.052731 3.300589 3.405647
H 0.786081 4.023418 3.807304
H 0.074845 2.398642 4.037656
H -0.950689 3.753894 3.535540
H 2.851070 -1.112651 0.071331

