#P B3LYP/6-31+G*
#  Units(Ang,Deg)

File generated by Gabedit
Quantum Mechanics Energy(kCal/mol) = -170.777900

1 1
C -1.595768 1.090900 0.217482
O -1.750497 0.181425 -0.861181
C -1.292438 -1.106643 -0.562469
O -1.722255 -2.015352 -1.514804
C 0.287922 -1.015294 -0.607787
C 0.717617 -0.083017 0.529773
O 2.046469 0.311157 0.160565
C -0.108279 1.219889 0.611198
O -0.105794 1.521320 1.998298
C -2.160617 2.410164 -0.366948
O -1.911232 3.438422 0.550220
H -2.202020 0.753300 1.090529
H -1.679957 -1.499520 0.403938
H 0.598159 -0.567203 -1.596734
H 0.762057 -0.595189 1.520546
H 2.450289 0.921227 0.829999
H 0.400438 2.022653 0.016055
H -3.268245 2.366287 -0.432622
H -1.742571 2.629363 -1.365096
H -1.051450 3.888574 0.374534
C -1.999197 -1.489243 -2.809306
H -2.245357 -2.395045 -3.381716
H -1.130141 -0.976186 -3.226547
H -2.868244 -0.818625 -2.762322
N 0.791794 -2.398118 -0.527413
H 0.066301 -3.105244 -0.749144
C 2.063887 -2.789431 -0.385024
O 3.048003 -1.975929 -0.168300
C 2.448611 -4.218453 -0.449606
H 2.253453 -4.669906 -1.442198
H 1.927666 -4.842015 0.302171
H 3.538728 -4.358687 -0.263381
C 0.152821 2.819595 2.386502
O 0.592506 3.613251 1.598629
C -0.145250 2.969007 3.826438
H 0.583563 3.640729 4.317647
H -0.158866 2.013752 4.375982
H -1.145474 3.429736 3.966641
H 2.796674 -0.938059 -0.060441

