#P B3LYP/6-31+G*
#  Units(Ang,Deg)

File generated by Gabedit
Quantum Mechanics Energy(kCal/mol) = 21.218515

1 1
C -1.313629 1.502248 -0.788843
O -1.427776 0.484539 -1.808278
C -1.026462 -0.836362 -1.375986
O -1.357084 -1.837819 -2.376321
C 0.486296 -0.865691 -1.030047
C 0.829049 0.292933 -0.061870
O 2.226745 0.520858 -0.108482
C 0.179383 1.648490 -0.422339
O 0.284354 2.505306 0.749804
C -1.888842 2.808205 -1.380567
O -1.822228 3.866680 -0.424096
H -1.895997 1.198085 0.086089
H -1.618969 -1.078206 -0.480449
H 1.065995 -0.730625 -1.946740
H 0.532328 0.008741 0.951950
H 2.458204 0.888551 0.750389
H 0.697565 2.103803 -1.272091
H -2.931164 2.652419 -1.670978
H -1.316593 3.091038 -2.268299
H -0.919006 3.857565 -0.043353
C -0.848089 -1.634938 -3.716966
H -1.222231 -2.438884 -4.355716
H 0.243973 -1.661934 -3.710506
H -1.196976 -0.674127 -4.104255
N 0.791455 -2.201970 -0.475605
H 0.009574 -2.839337 -0.496762
C 1.999621 -2.760324 -0.211321
O 3.063124 -2.048573 0.073608
C 2.064650 -4.222918 0.164819
H 1.307627 -4.792071 -0.380040
H 1.888298 -4.344066 1.236040
H 3.046340 -4.637124 -0.077284
C 1.343868 3.328932 0.924787
O 2.227947 3.523498 0.112595
C 1.233782 4.104285 2.216725
H 2.117978 4.727463 2.369748
H 1.140249 3.417287 3.060975
H 0.349678 4.745626 2.196144
H 2.831803 -1.093673 0.072324

