#P B3LYP/6-31+G*
#  Units(Ang,Deg)

File generated by Gabedit
Quantum Mechanics Energy(kCal/mol) = 20.370240

1 1
C -1.287683 1.626302 -0.754797
O -1.421965 0.608157 -1.770233
C -1.033460 -0.714369 -1.332493
O -1.375531 -1.716895 -2.327939
C 0.479116 -0.760023 -0.986048
C 0.843890 0.406104 -0.031330
O 2.248819 0.603800 -0.071158
C 0.213102 1.764795 -0.417410
O 0.347881 2.655371 0.725558
C -1.874236 2.932549 -1.332959
O -1.867759 3.962762 -0.344502
H -1.854262 1.322597 0.130691
H -1.628275 -0.945760 -0.435712
H 1.060951 -0.646631 -1.904285
H 0.535978 0.142720 0.984736
H 2.517014 0.830415 0.827136
H 0.723884 2.187175 -1.288288
H -2.902657 2.759846 -1.661032
H -1.280933 3.253466 -2.193475
H -0.976750 3.970501 0.060904
C -0.866764 -1.524942 -3.670309
H -1.250033 -2.327850 -4.304940
H 0.224969 -1.562859 -3.665662
H -1.206670 -0.562385 -4.061236
N 0.759406 -2.094057 -0.414633
H -0.046121 -2.700316 -0.374732
C 1.959348 -2.688664 -0.202363
O 3.058543 -2.002955 -0.010021
C 2.001128 -4.142882 0.207735
H 1.206003 -4.703184 -0.289944
H 1.867882 -4.232912 1.288194
H 2.959806 -4.590511 -0.065163
C 1.424090 3.464333 0.861798
O 2.302827 3.614953 0.034589
C 1.345090 4.280308 2.130803
H 2.240040 4.895263 2.251034
H 1.255375 3.620760 2.997077
H 0.469665 4.933234 2.104124
H 2.843148 -1.046430 -0.013944

