#P B3LYP/6-31+G*
#  Units(Ang,Deg)

File generated by Gabedit
Quantum Mechanics Energy(kCal/mol) = 20.181232

1 1
C -1.553994 1.454174 -0.188880
O -1.759878 0.388762 -1.140217
C -1.254164 -0.891095 -0.694087
O -1.654720 -1.956287 -1.598562
C 0.289199 -0.859221 -0.518033
C 0.730565 0.398611 0.278877
O 2.107596 0.620591 -0.000010
C -0.033082 1.698385 -0.101281
O 0.190396 2.699005 0.929231
C -2.332514 2.694337 -0.688652
O -2.588036 3.612262 0.380918
H -1.949343 1.137898 0.781388
H -1.732978 -1.104902 0.273683
H 0.759453 -0.821665 -1.503810
H 0.596133 0.207604 1.347447
H 2.548970 0.768315 0.845396
H 0.313465 2.073916 -1.069028
H -3.294651 2.368830 -1.093280
H -1.776072 3.197632 -1.483939
H -1.784559 4.132466 0.569205
C -1.329381 -1.798697 -3.001396
H -1.736117 -2.651755 -3.550176
H -0.245517 -1.772071 -3.134480
H -1.776231 -0.877498 -3.384320
N 0.673613 -2.128333 0.135958
H -0.112963 -2.707592 0.388464
C 1.887370 -2.733023 0.187287
O 3.020623 -2.082754 0.082984
C 1.982177 -4.150779 0.703072
H 2.842801 -4.661088 0.263920
H 1.081401 -4.713087 0.445437
H 2.093459 -4.148953 1.789700
C 1.256329 3.530442 0.878138
O 2.040451 3.616064 -0.047477
C 1.289225 4.460331 2.068453
H 2.175813 5.097902 2.036257
H 1.307375 3.883309 2.995927
H 0.399337 5.093909 2.075568
H 2.850777 -1.126540 0.045089

