#P B3LYP/6-31+G*
#  Units(Ang,Deg)

File generated by Gabedit
Quantum Mechanics Energy(kCal/mol) = -170.365500

1 1
C -1.454499 1.072169 0.113161
O -1.642524 0.205036 -0.996968
C -1.194341 -1.096064 -0.754406
O -1.608025 -1.949440 -1.767184
C 0.390711 -1.040930 -0.749482
C 0.811754 -0.121122 0.400664
O 2.182748 0.192421 0.124285
C 0.055862 1.225533 0.383823
O 0.195175 1.685026 1.716055
C -2.104663 2.390326 -0.361278
O -2.036272 3.256883 0.751309
H -1.983167 0.681592 1.014000
H -1.613476 -1.532331 0.179728
H 0.744132 -0.603468 -1.727544
H 0.755031 -0.609423 1.402268
H 2.556667 0.810040 0.807275
H 0.536928 1.933553 -0.338569
H -3.182048 2.239107 -0.580193
H -1.601010 2.809607 -1.248124
H -1.660273 4.130687 0.488523
C -1.888161 -1.345274 -3.025940
H -2.158437 -2.213460 -3.644329
H -1.012688 -0.827232 -3.424115
H -2.742914 -0.661542 -2.934662
N 0.838331 -2.443800 -0.661937
H 0.112637 -3.111613 -0.986439
C 2.063264 -2.903352 -0.381364
O 3.058857 -2.155199 -0.032226
C 2.373201 -4.351878 -0.436612
H 2.513652 -4.709087 -1.480443
H 1.598393 -4.992289 0.027534
H 3.330214 -4.586173 0.087341
C 0.299545 3.049114 1.915328
O 0.552454 3.783296 1.000531
C 0.107949 3.343391 3.353169
H 0.751611 4.181678 3.677718
H 0.308833 2.479948 4.008301
H -0.942703 3.646392 3.542162
H 2.866990 -1.098486 0.038365

