#P B3LYP/6-31+G*
#  Units(Ang,Deg)

File generated by Gabedit
Quantum Mechanics Energy(kCal/mol) = 19.584727

1 1
C -1.852945 0.874513 -0.338827
O -1.819910 -0.202286 -1.296232
C -1.108560 -1.365383 -0.826592
O -1.255810 -2.473791 -1.756248
C 0.389709 -1.044957 -0.575667
C 0.574855 0.269942 0.242395
O 1.891510 0.770743 -0.006856
C -0.413356 1.401003 -0.154823
O -0.456875 2.389016 0.910983
C -2.813889 1.963867 -0.864620
O -2.427981 2.384790 -2.174385
H -2.233883 0.490607 0.612281
H -1.585740 -1.676962 0.115067
H 0.887441 -0.913597 -1.539635
H 0.456326 0.046992 1.306592
H 2.269774 1.120241 0.817053
H -0.088963 1.871977 -1.087601
H -2.805187 2.823982 -0.190098
H -3.830747 1.564665 -0.903437
H -1.466450 2.539747 -2.166204
C -0.916218 -2.230886 -3.144037
H -1.117293 -3.140366 -3.715581
H 0.143044 -1.979539 -3.233230
H -1.528186 -1.415382 -3.538404
N 0.961272 -2.238130 0.081632
H 0.293548 -2.972512 0.262778
C 2.266164 -2.573719 0.201964
O 3.198184 -1.659554 0.203020
C 2.646466 -3.935606 0.735272
H 1.967671 -4.698860 0.347302
H 2.592435 -3.941604 1.826161
H 3.664015 -4.195057 0.433209
C 0.437128 3.403093 0.964647
O 1.244492 3.678208 0.098116
C 0.230068 4.258633 2.192829
H 1.034373 4.991211 2.292777
H 0.215097 3.634096 3.089190
H -0.723554 4.787132 2.126583
H 2.748417 -0.795369 0.117565

