#P B3LYP/6-31+G*
#  Units(Ang,Deg)

File generated by Gabedit
Quantum Mechanics Energy(kCal/mol) = 20.295234

1 1
C -1.859282 1.066194 0.155160
O -2.049874 0.043941 -0.843605
C -1.326717 -1.175306 -0.564652
O -1.701872 -2.229713 -1.492637
C 0.207944 -0.936760 -0.580758
C 0.592937 0.326984 0.239367
O 1.860623 0.784105 -0.222122
C -0.385836 1.519412 0.077314
O -0.145601 2.459898 1.160167
C -2.845163 2.212465 -0.158836
O -2.913968 3.125963 0.937012
H -2.082208 0.645169 1.140382
H -1.639224 -1.511644 0.435743
H 0.530909 -0.781268 -1.613050
H 0.657413 0.057683 1.297545
H 2.317635 1.189415 0.527828
H -0.228877 2.011044 -0.887808
H -3.842003 1.798815 -0.333295
H -2.524640 2.743728 -1.059120
H -2.004033 3.405563 1.152616
C -1.596130 -1.942349 -2.908689
H -1.955476 -2.810359 -3.467014
H -0.554394 -1.751673 -3.176242
H -2.211379 -1.073788 -3.157674
N 0.832894 -2.180540 -0.082531
H 0.173807 -2.921987 0.101520
C 2.137664 -2.545969 -0.110820
O 3.105533 -1.665420 -0.097050
C 2.516368 -3.955707 0.281290
H 1.765745 -4.665409 -0.074745
H 2.586938 -4.038133 1.368236
H 3.480812 -4.228330 -0.153958
C 0.765899 3.452258 1.037988
O 1.371231 3.733046 0.021288
C 0.849912 4.282998 2.297099
H 1.621573 5.050591 2.202722
H 1.092411 3.647132 3.151707
H -0.108939 4.768911 2.491711
H 2.711971 -0.769878 -0.074814

