#P B3LYP/6-31+G*
#  Units(Ang,Deg)

File generated by Gabedit
Quantum Mechanics Energy(kCal/mol) = 20.630279

1 1
C -1.302571 1.562452 -0.836612
O -1.410711 0.512075 -1.822265
C -1.030208 -0.795660 -1.336731
O -1.353514 -1.828796 -2.306856
C 0.475981 -0.825583 -0.964302
C 0.814911 0.361978 -0.027684
O 2.218213 0.571230 -0.046439
C 0.186749 1.709435 -0.452694
O 0.282783 2.612726 0.684645
C -1.861011 2.850060 -1.481053
O -1.817358 3.932879 -0.552201
H -1.900018 1.292376 0.039369
H -1.640102 -1.000250 -0.443575
H 1.072458 -0.726212 -1.874788
H 0.490076 0.117225 0.987790
H 2.452997 0.914268 0.823328
H 0.723090 2.123961 -1.311947
H -2.895884 2.686827 -1.793234
H -1.265614 3.107575 -2.361228
H -0.928467 3.920992 -0.140435
C -0.818462 -1.679008 -3.644339
H -1.190002 -2.501216 -4.260980
H 0.272949 -1.717159 -3.616981
H -1.149721 -0.728982 -4.071647
N 0.757163 -2.145158 -0.360917
H -0.040571 -2.762287 -0.332790
C 1.958989 -2.716835 -0.101834
O 3.040779 -2.009147 0.108773
C 2.011258 -4.161065 0.340992
H 1.217076 -4.737659 -0.139316
H 1.884425 -4.227288 1.423949
H 2.971344 -4.608573 0.073004
C 1.348511 3.431728 0.842548
O 2.247953 3.582323 0.037911
C 1.227158 4.260608 2.099783
H 2.114631 4.882173 2.239834
H 1.115553 3.609792 2.970103
H 0.349207 4.907929 2.040084
H 2.809993 -1.054966 0.074093

