#P B3LYP/6-31+G*
#  Units(Ang,Deg)

File generated by Gabedit
Quantum Mechanics Energy(kCal/mol) = 19.922093

1 1
C -1.584400 1.572475 -0.412790
O -1.755510 0.541202 -1.408102
C -1.227323 -0.745144 -1.012425
O -1.599720 -1.778992 -1.964092
C 0.312960 -0.680550 -0.828446
C 0.703705 0.527975 0.064020
O 2.078491 0.820450 -0.147266
C -0.069650 1.830397 -0.257893
O 0.125460 2.753685 0.849307
C -2.341403 2.823542 -0.908770
O -2.363400 3.827805 0.106059
H -2.014656 1.228070 0.532579
H -1.705479 -1.010216 -0.057088
H 0.784792 -0.550684 -1.805667
H 0.538762 0.263149 1.112437
H 2.456050 1.036278 0.714982
H 0.301156 2.272795 -1.187671
H -3.370056 2.553121 -1.161562
H -1.853731 3.220837 -1.803087
H -1.446804 3.941807 0.426603
C -1.256347 -1.561480 -3.354342
H -1.645310 -2.396223 -3.942746
H -0.170936 -1.517904 -3.469581
H -1.708139 -0.630434 -3.706369
N 0.738990 -1.981498 -0.271526
H -0.018288 -2.629744 -0.115579
C 1.988922 -2.501045 -0.201890
O 3.058374 -1.746711 -0.173700
C 2.172395 -3.938044 0.229297
H 1.344463 -4.553811 -0.130187
H 2.207438 -4.002158 1.319198
H 3.103066 -4.343043 -0.175302
C 1.153049 3.633935 0.856329
O 1.925123 3.824597 -0.063802
C 1.156105 4.469586 2.114968
H 2.017256 5.141696 2.130409
H 1.201114 3.823867 2.995040
H 0.242466 5.065665 2.172776
H 2.780067 -0.808105 -0.171512

