#P B3LYP/6-31+G*
#  Units(Ang,Deg)

File generated by Gabedit
Quantum Mechanics Energy(kCal/mol) = -170.816700

1 1
C -1.517337 1.085611 0.090792
O -1.673111 0.196586 -1.006875
C -1.227103 -1.099807 -0.724264
O -1.636088 -1.990305 -1.703701
C 0.356270 -1.027193 -0.720898
C 0.761098 -0.103533 0.434634
O 2.122940 0.234826 0.146596
C -0.020394 1.229917 0.437167
O 0.022561 1.645631 1.791392
C -2.116899 2.408595 -0.444366
O -1.711441 3.437035 0.421945
H -2.088973 0.717833 0.973463
H -1.647925 -1.505597 0.222661
H 0.701645 -0.574965 -1.696146
H 0.721126 -0.598466 1.432929
H 2.500653 0.855463 0.823669
H 0.484361 1.967405 -0.238512
H -3.224808 2.399624 -0.368978
H -1.824083 2.599191 -1.491791
H -0.957112 3.955649 0.046828
C -1.925491 -1.439643 -2.984781
H -2.232783 -2.329242 -3.554223
H -1.042671 -0.968420 -3.421616
H -2.757902 -0.727135 -2.912204
N 0.830625 -2.421321 -0.643944
H 0.108995 -3.104366 -0.945365
C 2.073182 -2.857879 -0.406023
O 3.062179 -2.086865 -0.082534
C 2.409989 -4.299073 -0.483985
H 2.423436 -4.670956 -1.529739
H 1.716868 -4.944797 0.088306
H 3.428216 -4.505344 -0.080791
C 0.353337 2.962855 2.052379
O 0.871259 3.636429 1.203687
C 0.020552 3.285573 3.456191
H 0.748965 3.997337 3.887790
H -0.029988 2.401320 4.111389
H -0.975064 3.773876 3.509060
H 2.841576 -1.038305 0.010169

