#P B3LYP/6-31+G*
#  Units(Ang,Deg)

File generated by Gabedit
Quantum Mechanics Energy(kCal/mol) = 14.854221

1 1
C -1.603267 1.632085 -0.177548
O -1.777238 0.516251 -1.085563
C -1.201874 -0.734428 -0.632599
O -1.531062 -1.823614 -1.536817
C 0.330188 -0.569463 -0.483362
C 0.624016 0.605447 0.479744
O 2.030734 0.848532 0.553276
C -0.081727 1.892082 -0.004717
O 0.145765 2.911067 1.006726
C -2.370671 2.828426 -0.781069
O -2.674575 3.791441 0.228785
H -2.048561 1.360482 0.784431
H -1.655145 -0.977243 0.340445
H 0.740023 -0.305172 -1.461523
H 0.256512 0.352565 1.478594
H 2.368405 0.405404 1.351475
H 0.359789 2.196438 -0.958330
H -3.311598 2.474190 -1.210729
H -1.780442 3.294386 -1.574478
H -1.835796 4.140923 0.580705
C -1.174421 -1.662748 -2.931203
H -1.531414 -2.535282 -3.483990
H -0.088728 -1.593698 -3.032869
H -1.646777 -0.762433 -3.332695
N 0.947620 -1.827930 -0.032337
H 0.447717 -2.339522 0.679212
C 2.120584 -2.338369 -0.474436
O 2.793759 -1.758935 -1.436732
C 2.631716 -3.664968 0.039038
H 2.940909 -4.301716 -0.793236
H 1.854473 -4.187111 0.602289
H 3.489991 -3.506570 0.695688
C 0.376405 4.197438 0.655493
O 0.442691 4.618085 -0.483719
C 0.561013 5.079184 1.868216
H 0.746260 6.113529 1.569319
H 1.407634 4.728454 2.462878
H -0.334001 5.049633 2.493891
H 3.562811 -2.325138 -1.638411

