#P B3LYP/6-31+G*
#  Units(Ang,Deg)

File generated by Gabedit
Quantum Mechanics Energy(kCal/mol) = 20.910666

1 1
C -1.592313 1.308312 0.032713
O -1.835572 0.245088 -0.912967
C -1.270345 -1.027716 -0.521005
O -1.696511 -2.087390 -1.420307
C 0.279851 -0.960366 -0.434176
C 0.734228 0.300053 0.351505
O 2.090079 0.574322 0.009096
C -0.069979 1.581478 0.011413
O 0.271940 2.573471 1.017567
C -2.460713 2.515427 -0.394697
O -2.755126 3.360023 0.723699
H -1.904202 0.968110 1.025017
H -1.685948 -1.270125 0.468954
H 0.692569 -0.900143 -1.444240
H 0.654972 0.100375 1.424073
H 2.574139 0.737871 0.829327
H 0.228384 1.930826 -0.981787
H -3.409140 2.143793 -0.791987
H -1.962889 3.089588 -1.180146
H -2.071326 4.050938 0.804413
C -1.459973 -1.895990 -2.836773
H -1.875549 -2.750283 -3.376936
H -0.387153 -1.836428 -3.033464
H -1.953630 -0.981119 -3.174782
N 0.726592 -2.229126 0.179471
H -0.032264 -2.836870 0.449260
C 1.956165 -2.801299 0.157874
O 3.061696 -2.108423 0.041681
C 2.113749 -4.225453 0.639366
H 2.993111 -4.688502 0.185172
H 1.236233 -4.818670 0.371070
H 2.229514 -4.244867 1.725348
C 0.382288 3.883326 0.696382
O 0.279172 4.348003 -0.422634
C 0.695661 4.727213 1.909717
H 0.790221 5.780169 1.634228
H 1.632087 4.397911 2.365835
H -0.100705 4.628910 2.651043
H 2.850341 -1.159798 0.038567

