#P B3LYP/6-31+G*
#  Units(Ang,Deg)

File generated by Gabedit
Quantum Mechanics Energy(kCal/mol) = -170.385630

1 1
C -1.469618 1.087404 0.124296
O -1.648899 0.207861 -0.978024
C -1.205091 -1.091681 -0.713520
O -1.627658 -1.964243 -1.703559
C 0.380179 -1.035119 -0.715348
C 0.792696 -0.120186 0.442722
O 2.166683 0.189504 0.178650
C 0.037440 1.228322 0.421921
O 0.148993 1.681136 1.759515
C -2.100899 2.403340 -0.384599
O -1.992910 3.320957 0.678927
H -2.019602 0.713161 1.018824
H -1.618741 -1.507664 0.232407
H 0.734958 -0.586843 -1.688240
H 0.727142 -0.611323 1.441574
H 2.541510 0.792442 0.873672
H 0.532337 1.938574 -0.288804
H -3.187343 2.267070 -0.565813
H -1.615162 2.767626 -1.304883
H -1.509619 4.132689 0.394009
C -1.869997 -1.396284 -2.987331
H -2.143880 -2.278621 -3.583930
H -0.976860 -0.907751 -3.382770
H -2.713396 -0.694603 -2.935197
N 0.827813 -2.438109 -0.644682
H 0.099210 -3.100617 -0.975975
C 2.052582 -2.904334 -0.374653
O 3.047339 -2.159519 -0.012091
C 2.361271 -4.351067 -0.464996
H 2.668624 -4.640269 -1.492729
H 1.523169 -5.010198 -0.178191
H 3.220883 -4.632226 0.184444
C 0.289213 3.040900 1.964436
O 0.603489 3.767414 1.061806
C 0.053108 3.347527 3.391369
H 0.769326 4.103770 3.762446
H 0.113737 2.464737 4.047617
H -0.963227 3.772939 3.524209
H 2.849436 -1.105523 0.072615

