#P B3LYP/6-31+G*
#  Units(Ang,Deg)

File generated by Gabedit
Quantum Mechanics Energy(kCal/mol) = -159.479600

1 1
C -1.422094 1.090405 0.123053
O -1.604660 0.208386 -0.978942
C -1.274276 -1.128384 -0.703135
O -1.610091 -1.937283 -1.777760
C 0.282766 -1.158641 -0.503943
C 0.619328 -0.303504 0.735802
O 2.026044 -0.308972 0.796589
C 0.069886 1.121955 0.521686
O 0.157869 1.700214 1.812907
C -1.920417 2.441030 -0.432063
O -2.143548 3.240729 0.712581
H -2.056621 0.771888 0.983154
H -1.847607 -1.533927 0.158607
H 0.772527 -0.710023 -1.414978
H 0.238160 -0.746379 1.685869
H 2.347465 0.415500 1.385785
H 0.692584 1.690620 -0.208294
H -2.899752 2.319268 -0.938698
H -1.195642 2.907177 -1.119996
H -1.817552 4.157039 0.554566
C -1.695374 -1.292169 -3.044066
H -1.875974 -2.136966 -3.723062
H -0.768043 -0.771715 -3.293781
H -2.548460 -0.600415 -3.053916
N 0.742183 -2.540565 -0.305811
H 0.090295 -3.183948 0.151603
C 1.945231 -2.936805 -0.690820
O 2.647025 -2.009044 -1.336364
C 2.494241 -4.286216 -0.464371
H 2.874996 -4.754391 -1.397036
H 1.771862 -5.014163 -0.045964
H 3.347525 -4.273717 0.249792
C 0.245674 3.073489 1.884757
O 0.462349 3.733882 0.905561
C 0.072740 3.495502 3.293886
H 0.682849 4.388260 3.520857
H 0.333455 2.708152 4.019219
H -0.984946 3.764201 3.485449
H 3.595064 -2.286944 -1.548061

