#P B3LYP/6-31+G*
#  Units(Ang,Deg)

File generated by Gabedit
Quantum Mechanics Energy(kCal/mol) = -159.492050

1 1
C -1.410287 1.121484 0.095933
O -1.606667 0.210679 -0.980848
C -1.272637 -1.119023 -0.683929
O -1.636517 -1.953957 -1.729003
C 0.289832 -1.140427 -0.529434
C 0.648555 -0.270333 0.691994
O 2.056604 -0.261608 0.717215
C 0.083723 1.151917 0.486918
O 0.192036 1.712219 1.787695
C -1.920278 2.451410 -0.503305
O -2.360447 3.225312 0.590092
H -2.042729 0.829917 0.967627
H -1.819779 -1.504787 0.203465
H 0.752006 -0.698067 -1.457741
H 0.294315 -0.708984 1.654914
H 2.385594 0.450864 1.316033
H 0.700184 1.731564 -0.238969
H -2.821088 2.270741 -1.128362
H -1.152349 2.973082 -1.097035
H -1.890768 4.090998 0.611034
C -1.769611 -1.337525 -3.005501
H -1.969180 -2.198087 -3.658904
H -0.854246 -0.818556 -3.298527
H -2.626240 -0.649984 -3.000633
N 0.761942 -2.517746 -0.330894
H 0.119939 -3.163944 0.136926
C 1.960282 -2.908895 -0.735367
O 2.646153 -1.978803 -1.394621
C 2.519796 -4.254722 -0.513935
H 2.915791 -4.712046 -1.445531
H 1.799222 -4.992879 -0.110237
H 3.364728 -4.239733 0.210107
C 0.230288 3.082304 1.890016
O 0.296577 3.774280 0.910316
C 0.182289 3.467246 3.318999
H 0.829880 4.341079 3.517731
H 0.485058 2.656193 4.000867
H -0.847345 3.756643 3.607185
H 3.591993 -2.252065 -1.621565

