#P B3LYP/6-31+G*
#  Units(Ang,Deg)

File generated by Gabedit
Quantum Mechanics Energy(kCal/mol) = -159.473000

1 1
C -1.417252 1.088555 0.123827
O -1.604075 0.204329 -0.975725
C -1.267897 -1.131163 -0.701706
O -1.610784 -1.942372 -1.771902
C 0.291272 -1.154289 -0.516241
C 0.634351 -0.298621 0.721015
O 2.041584 -0.297168 0.769003
C 0.076999 1.124912 0.513373
O 0.174612 1.699236 1.806348
C -1.925128 2.435890 -0.430928
O -2.188686 3.222975 0.713295
H -2.045718 0.769262 0.988280
H -1.832239 -1.537950 0.165372
H 0.769572 -0.701306 -1.431225
H 0.263243 -0.743845 1.673961
H 2.364370 0.423854 1.361624
H 0.692744 1.698245 -0.218700
H -2.891542 2.301724 -0.959382
H -1.194239 2.919659 -1.099865
H -1.850091 4.138710 0.580875
C -1.696595 -1.302134 -3.040749
H -1.879215 -2.149393 -3.716184
H -0.768984 -0.784050 -3.293844
H -2.548775 -0.609328 -3.052273
N 0.760116 -2.533846 -0.323563
H 0.128725 -3.172207 0.168207
C 1.946602 -2.933507 -0.752545
O 2.623111 -2.010651 -1.432134
C 2.504147 -4.281298 -0.538654
H 2.859548 -4.751309 -1.480572
H 1.794690 -5.009575 -0.098681
H 3.377339 -4.265844 0.151453
C 0.246553 3.072535 1.883874
O 0.422342 3.741338 0.902263
C 0.110525 3.485395 3.299756
H 0.707663 4.391321 3.509868
H 0.413523 2.702088 4.013020
H -0.945626 3.729935 3.528283
H 3.560272 -2.291970 -1.683165

