#P B3LYP/6-31+G*
#  Units(Ang,Deg)

File generated by Gabedit
Quantum Mechanics Energy(kCal/mol) = -170.750120

1 1
C -1.584117 1.117244 0.153998
O -1.786202 0.238945 -0.945525
C -1.307726 -1.053766 -0.695576
O -1.760333 -1.940765 -1.656832
C 0.272461 -0.964417 -0.772364
C 0.741840 -0.009465 0.328435
O 2.068113 0.349268 -0.080632
C -0.069709 1.302478 0.382169
O 0.078060 1.723415 1.727566
C -2.263499 2.431114 -0.302476
O -1.818873 3.460433 0.541115
H -2.075061 0.712193 1.067394
H -1.673653 -1.476614 0.267845
H 0.566503 -0.540382 -1.777569
H 0.804676 -0.487966 1.334112
H 2.463435 1.041609 0.509273
H 0.362073 2.046065 -0.335924
H -3.359837 2.391603 -0.133298
H -2.061338 2.646908 -1.365625
H -1.079595 3.972982 0.136106
C -1.910441 -1.424030 -2.975562
H -2.153757 -2.326283 -3.556342
H -0.989137 -0.957952 -3.331481
H -2.746982 -0.712965 -3.003185
N 0.762936 -2.351363 -0.671246
H 0.034290 -3.050256 -0.913490
C 2.018007 -2.765547 -0.463068
O 3.014230 -1.977998 -0.216095
C 2.362899 -4.207435 -0.480353
H 2.170506 -4.682398 -1.461905
H 1.812192 -4.791896 0.281865
H 3.444971 -4.372541 -0.271185
C 0.419733 3.038170 1.963230
O 0.817674 3.733863 1.066315
C 0.277137 3.336245 3.402757
H 1.091936 3.996571 3.755178
H 0.258598 2.436318 4.038300
H -0.675270 3.873920 3.590649
H 2.799823 -0.926673 -0.168326

