#P B3LYP/6-31+G*
#  Units(Ang,Deg)

File generated by Gabedit
Quantum Mechanics Energy(kCal/mol) = 15.189367

1 1
C -1.616640 1.485013 -0.077059
O -1.855311 0.382198 -0.986417
C -1.277817 -0.883183 -0.583978
O -1.679601 -1.953514 -1.481550
C 0.261336 -0.739509 -0.531312
C 0.627920 0.398486 0.450561
O 2.043336 0.611767 0.452064
C -0.082644 1.711305 0.042289
O 0.201300 2.690268 1.078226
C -2.383633 2.697340 -0.651389
O -2.650823 3.663954 0.365134
H -2.032339 1.216406 0.898829
H -1.673940 -1.132314 0.412134
H 0.608252 -0.445396 -1.525367
H 0.311370 0.116656 1.459051
H 2.377580 0.448970 1.353633
H 0.324250 2.044054 -0.917208
H -3.341188 2.355792 -1.053832
H -1.812906 3.157769 -1.462121
H -1.821628 4.130828 0.571201
C -1.403500 -1.778545 -2.892529
H -1.806472 -2.637637 -3.434652
H -0.324687 -1.724558 -3.057400
H -1.884146 -0.865524 -3.253446
N 0.893948 -2.018034 -0.167806
H 0.408340 -2.581036 0.514212
C 2.066650 -2.480982 -0.658429
O 2.719578 -1.820494 -1.581417
C 2.610624 -3.826833 -0.237439
H 2.879995 -4.418997 -1.115176
H 1.866288 -4.382158 0.338370
H 3.500708 -3.694104 0.381505
C 0.421245 3.988119 0.764930
O 0.440547 4.450187 -0.359901
C 0.669597 4.822429 1.999674
H 0.853470 5.865246 1.730900
H 1.537517 4.441512 2.542856
H -0.197191 4.778582 2.663105
H 3.500616 -2.350327 -1.823768

