#P B3LYP/6-31+G*
#  Units(Ang,Deg)

File generated by Gabedit
Quantum Mechanics Energy(kCal/mol) = -170.398220

1 1
C -1.451542 1.096777 0.136222
O -1.650587 0.239420 -0.981144
C -1.225930 -1.072872 -0.741301
O -1.644559 -1.917143 -1.756183
C 0.359874 -1.046717 -0.728271
C 0.796256 -0.124878 0.413798
O 2.171941 0.163149 0.131320
C 0.062093 1.234125 0.394993
O 0.219691 1.693326 1.725088
C -2.100476 2.421405 -0.321957
O -1.947051 3.314418 0.757329
H -1.975713 0.699100 1.035450
H -1.661669 -1.502767 0.187442
H 0.726632 -0.625672 -1.708755
H 0.737053 -0.605613 1.418104
H 2.558351 0.778558 0.809074
H 0.544680 1.932490 -0.335143
H -3.192305 2.291385 -0.463918
H -1.650910 2.805876 -1.252217
H -1.516633 4.149663 0.457764
C -1.858049 -1.315556 -3.029746
H -2.064754 -2.185815 -3.668162
H -0.975083 -0.771972 -3.372678
H -2.733702 -0.654305 -2.983276
N 0.782238 -2.457065 -0.627758
H 0.045962 -3.113735 -0.951619
C 1.996814 -2.936809 -0.340740
O 3.004336 -2.202473 0.008770
C 2.283276 -4.390631 -0.391666
H 2.480458 -4.737285 -1.427191
H 1.474392 -5.021871 0.016414
H 3.201142 -4.648491 0.183038
C 0.368215 3.053022 1.923127
O 0.644632 3.777755 1.007238
C 0.184746 3.357052 3.358665
H 0.750551 4.260667 3.650482
H 0.486568 2.533044 4.024586
H -0.884053 3.561337 3.573042
H 2.830539 -1.141056 0.064336

