#P B3LYP/6-31+G*
#  Units(Ang,Deg)

File generated by Gabedit
Quantum Mechanics Energy(kCal/mol) = 19.785200

1 1
C -1.393757 1.606918 -0.550211
O -1.567534 0.560845 -1.530265
C -1.140107 -0.744199 -1.073378
O -1.509297 -1.778923 -2.025177
C 0.386517 -0.766820 -0.786098
C 0.790326 0.447112 0.091180
O 2.192852 0.631306 -0.032025
C 0.122983 1.782820 -0.328148
O 0.310661 2.751764 0.739842
C -2.060936 2.887046 -1.102239
O -2.215315 3.867911 -0.072034
H -1.886364 1.304409 0.378988
H -1.694905 -0.957552 -0.146973
H 0.929934 -0.701822 -1.732085
H 0.536404 0.232908 1.133342
H 2.524293 0.809238 0.855678
H 0.567587 2.155486 -1.256098
H -3.050595 2.637144 -1.493873
H -1.459502 3.301237 -1.915968
H -1.333281 4.105297 0.272992
C -1.066919 -1.614414 -3.394584
H -1.463643 -2.441000 -3.989289
H 0.024329 -1.632431 -3.440509
H -1.443071 -0.669184 -3.794511
N 0.693187 -2.069374 -0.157405
H -0.117850 -2.652608 -0.015745
C 1.893288 -2.685165 -0.009632
O 3.029972 -2.034566 0.043281
C 1.930904 -4.122390 0.457217
H 2.824287 -4.624272 0.077928
H 1.053265 -4.665200 0.097965
H 1.943505 -4.163048 1.548733
C 1.398336 3.555737 0.772952
O 2.242241 3.637235 -0.099027
C 1.380033 4.460811 1.982485
H 2.282535 5.075412 2.018828
H 1.325656 3.865444 2.896849
H 0.507584 5.117339 1.947764
H 2.860815 -1.074208 0.027438

