#P B3LYP/6-31+G*
#  Units(Ang,Deg)

File generated by Gabedit
Quantum Mechanics Energy(kCal/mol) = 20.980720

1 1
C -1.269620 1.560862 -0.774361
O -1.375996 0.533516 -1.785463
C -1.010071 -0.790353 -1.327956
O -1.324835 -1.796128 -2.328962
C 0.490046 -0.844187 -0.930620
C 0.821415 0.322573 0.030413
O 2.224593 0.510872 0.036201
C 0.217667 1.685550 -0.381331
O 0.316980 2.577077 0.764647
C -1.815041 2.871010 -1.385526
O -1.821360 3.920217 -0.414772
H -1.873254 1.272083 0.091360
H -1.635922 -1.013283 -0.450383
H 1.103022 -0.734646 -1.828872
H 0.477213 0.064588 1.036181
H 2.426281 0.891315 0.895834
H 0.764560 2.101795 -1.233070
H -2.836008 2.710466 -1.741802
H -1.192027 3.168421 -2.233401
H -0.929975 3.959735 -0.010608
C -0.769801 -1.614476 -3.654294
H -1.136273 -2.418521 -4.297352
H 0.320902 -1.658815 -3.612431
H -1.090398 -0.652039 -4.061490
N 0.751195 -2.176806 -0.344903
H -0.044351 -2.796447 -0.379202
C 1.938046 -2.762281 -0.041542
O 3.016292 -2.080847 0.265404
C 1.954500 -4.223850 0.344003
H 2.913837 -4.676837 0.082634
H 1.163981 -4.767562 -0.178900
H 1.798502 -4.331009 1.419869
C 1.393627 3.378089 0.939367
O 2.303264 3.520792 0.144810
C 1.273585 4.197724 2.202778
H 2.169710 4.803326 2.356959
H 1.142820 3.541184 3.066106
H 0.406973 4.859904 2.140440
H 2.820606 -1.119277 0.262786

