#P B3LYP/6-31+G*
#  Units(Ang,Deg)

File generated by Gabedit
Quantum Mechanics Energy(kCal/mol) = 20.342828

1 1
C -1.772822 1.234709 -0.113274
O -1.910352 0.189089 -1.098430
C -1.272569 -1.053262 -0.721609
O -1.601305 -2.114888 -1.658730
C 0.265736 -0.880232 -0.590505
C 0.609780 0.376650 0.252311
O 1.944253 0.756193 -0.054265
C -0.278242 1.612118 -0.047828
O -0.104047 2.577022 1.026170
C -2.659210 2.419055 -0.559418
O -2.803222 3.371898 0.497085
H -2.118109 0.856989 0.854009
H -1.696463 -1.349520 0.250019
H 0.694968 -0.749583 -1.586978
H 0.529313 0.126352 1.314057
H 2.319277 1.129061 0.752344
H 0.005572 2.060623 -1.004936
H -3.650814 2.046876 -0.830395
H -2.219037 2.905844 -1.433926
H -1.914841 3.680673 0.759640
C -1.336233 -1.872370 -3.062170
H -1.679920 -2.737223 -3.635064
H -0.264108 -1.739741 -3.223931
H -1.877619 -0.982332 -3.393307
N 0.793687 -2.137320 -0.017840
H 0.088524 -2.845953 0.118539
C 2.078160 -2.565645 0.068488
O 3.095754 -1.744264 0.154163
C 2.346113 -3.991866 0.491559
H 1.587122 -4.661370 0.079727
H 2.327413 -4.071170 1.580870
H 3.324720 -4.320444 0.133354
C 0.863301 3.521331 0.969966
O 1.584485 3.736554 0.014681
C 0.856997 4.392764 2.204097
H 1.677548 5.113359 2.172307
H 0.967316 3.777235 3.099890
H -0.087645 4.936766 2.275361
H 2.773216 -0.821553 0.157795

