#P B3LYP/6-31+G*
#  Units(Ang,Deg)

File generated by Gabedit
Quantum Mechanics Energy(kCal/mol) = -170.217550

1 1
C -1.442605 1.045636 0.151572
O -1.648577 0.215336 -0.984610
C -1.213293 -1.098604 -0.784406
O -1.612056 -1.900353 -1.842155
C 0.373546 -1.074576 -0.744890
C 0.808161 -0.152673 0.398470
O 2.185866 0.133257 0.119071
C 0.076373 1.206219 0.360373
O 0.285358 1.712828 1.664371
C -2.131196 2.367324 -0.243647
O -2.208893 3.097554 0.964741
H -1.932368 0.612818 1.054701
H -1.661536 -1.564503 0.121284
H 0.753508 -0.658438 -1.722681
H 0.739464 -0.626449 1.405385
H 2.568671 0.743076 0.804602
H 0.532158 1.881247 -0.407214
H -3.169847 2.182670 -0.587139
H -1.570544 2.917860 -1.017723
H -2.060814 4.056658 0.792413
C -1.819923 -1.237428 -3.086968
H -2.023602 -2.076509 -3.767081
H -0.935889 -0.676257 -3.398836
H -2.695122 -0.577333 -3.012923
N 0.788386 -2.485684 -0.633195
H 0.053499 -3.142261 -0.957394
C 2.002316 -2.967483 -0.339384
O 3.010218 -2.233276 0.006666
C 2.286530 -4.421259 -0.373997
H 2.942746 -4.682740 -1.233636
H 1.395587 -5.066397 -0.441252
H 2.855642 -4.748294 0.524365
C 0.258779 3.087203 1.824250
O 0.328343 3.816418 0.873937
C 0.186903 3.394852 3.269576
H 0.646023 4.374449 3.495386
H 0.674985 2.634610 3.900855
H -0.871449 3.442531 3.595963
H 2.839212 -1.169407 0.054303

