#P B3LYP/6-31+G*
#  Units(Ang,Deg)

File generated by Gabedit
Quantum Mechanics Energy(kCal/mol) = -170.741670

1 1
C -1.541148 1.080804 0.092198
O -1.688868 0.201332 -1.014395
C -1.246153 -1.097806 -0.741986
O -1.643058 -1.970345 -1.742108
C 0.337080 -1.032210 -0.717414
C 0.739299 -0.098093 0.428822
O 2.100709 0.242613 0.135239
C -0.042826 1.234956 0.424786
O 0.020687 1.654877 1.776494
C -2.168135 2.396660 -0.429687
O -1.784339 3.431550 0.435022
H -2.102927 0.694738 0.972780
H -1.679744 -1.516577 0.193391
H 0.698693 -0.598863 -1.695048
H 0.703645 -0.587930 1.430099
H 2.483027 0.854674 0.816995
H 0.455989 1.967790 -0.260061
H -3.274797 2.363409 -0.350727
H -1.882360 2.597895 -1.476787
H -1.019130 3.940774 0.076715
C -1.862485 -1.398858 -3.028514
H -2.092087 -2.283744 -3.639594
H -0.973704 -0.879742 -3.393962
H -2.727041 -0.722248 -2.993566
N 0.801562 -2.427925 -0.610384
H 0.077244 -3.112837 -0.898207
C 2.044613 -2.859714 -0.365029
O 3.033409 -2.082527 -0.062776
C 2.383659 -4.302230 -0.407292
H 2.372620 -4.708508 -1.438821
H 1.706703 -4.931272 0.200090
H 3.411835 -4.492899 -0.022738
C 0.345274 2.971103 2.036484
O 0.804368 3.667996 1.172436
C 0.090611 3.263324 3.462705
H 0.866946 3.931338 3.879784
H 0.034834 2.361777 4.093987
H -0.879423 3.790487 3.576817
H 2.814112 -1.031340 0.011617

