#P B3LYP/6-31+G*
#  Units(Ang,Deg)

File generated by Gabedit
Quantum Mechanics Energy(kCal/mol) = -170.460740

1 1
C -1.484497 1.074061 0.110737
O -1.646573 0.200999 -0.999663
C -1.215488 -1.102398 -0.729544
O -1.624722 -1.971554 -1.728364
C 0.369367 -1.050025 -0.710016
C 0.775759 -0.139008 0.454037
O 2.147167 0.180712 0.188077
C 0.017123 1.207242 0.437907
O 0.103255 1.652004 1.779437
C -2.090577 2.400249 -0.403012
O -1.881098 3.345387 0.619801
H -2.053932 0.696150 0.990415
H -1.650809 -1.516039 0.207641
H 0.730122 -0.597005 -1.678934
H 0.715387 -0.637025 1.449646
H 2.518541 0.793018 0.876021
H 0.524546 1.922451 -0.260040
H -3.190704 2.309993 -0.516177
H -1.645560 2.711811 -1.362607
H -1.349754 4.109857 0.292526
C -1.889558 -1.392698 -3.002878
H -2.197297 -2.267711 -3.593681
H -0.995439 -0.922128 -3.417435
H -2.716543 -0.673713 -2.928833
N 0.822207 -2.451549 -0.637750
H 0.096148 -3.118604 -0.963021
C 2.052475 -2.907309 -0.374173
O 3.046895 -2.156523 -0.027744
C 2.374052 -4.353454 -0.449187
H 2.523598 -4.691526 -1.495625
H 1.604531 -5.007216 -0.000775
H 3.329069 -4.584498 0.076635
C 0.317288 3.001571 1.990924
O 0.711598 3.704722 1.100880
C 0.048674 3.324136 3.408734
H 0.753339 4.089053 3.784543
H 0.099522 2.448740 4.075916
H -0.971868 3.745711 3.516661
H 2.847274 -1.104419 0.062987

