#P B3LYP/6-31+G*
#  Units(Ang,Deg)

File generated by Gabedit
Quantum Mechanics Energy(kCal/mol) = -170.751570

1 1
C -1.506888 1.085018 0.094037
O -1.660301 0.203679 -1.010247
C -1.226247 -1.097918 -0.730989
O -1.625745 -1.978954 -1.723773
C 0.356786 -1.035558 -0.712644
C 0.765848 -0.112390 0.441194
O 2.126430 0.227514 0.141146
C -0.009950 1.224530 0.441569
O 0.034438 1.637253 1.796284
C -2.112478 2.407491 -0.436542
O -1.728860 3.439488 0.437959
H -2.076814 0.708252 0.972832
H -1.661206 -1.508996 0.206906
H 0.711447 -0.589738 -1.687175
H 0.734194 -0.607495 1.439948
H 2.517014 0.830415 0.827136
H 0.499508 1.957356 -0.235589
H -3.222359 2.381597 -0.376081
H -1.802611 2.605406 -1.477657
H -0.976750 3.970501 0.060904
C -1.909203 -1.411668 -2.999503
H -2.195606 -2.294701 -3.587908
H -1.032256 -0.916504 -3.422022
H -2.756700 -0.718180 -2.921099
N 0.820927 -2.434651 -0.627423
H 0.089676 -3.112989 -0.913328
C 2.065989 -2.869126 -0.406180
O 3.060898 -2.093753 -0.114665
C 2.412634 -4.310698 -0.462961
H 2.411678 -4.708826 -1.499876
H 1.731803 -4.949458 0.130760
H 3.440706 -4.498767 -0.071305
C 0.357143 2.956980 2.058088
O 0.881235 3.628142 1.210207
C 0.015099 3.284400 3.458356
H 0.740191 4.000166 3.890442
H -0.038277 2.404696 4.119516
H -0.980392 3.773178 3.502904
H 2.843148 -1.046430 -0.013944

