#P B3LYP/6-31+G*
#  Units(Ang,Deg)

File generated by Gabedit
Quantum Mechanics Energy(kCal/mol) = 13.331621

1 1
C -1.731077 1.327108 0.217604
O -1.561729 0.366884 -0.851947
C -1.033951 -0.911892 -0.424167
O -1.014824 -1.864268 -1.521970
C 0.380818 -0.719363 0.177571
C 0.328794 0.326190 1.320803
O 1.657099 0.612047 1.762672
C -0.348196 1.635714 0.840938
O -0.569373 2.519068 1.973983
C -2.420586 2.585749 -0.355409
O -1.621961 3.189003 -1.375521
H -2.383060 0.884258 0.976378
H -1.718271 -1.315234 0.337582
H 1.037462 -0.328399 -0.604012
H -0.243908 -0.086138 2.156536
H 2.134744 1.024930 1.020456
H 0.279887 2.131742 0.095174
H -2.591566 3.311060 0.444306
H -3.388285 2.305362 -0.779566
H -1.483304 2.532017 -2.080624
C -0.300101 -1.482633 -2.722610
H -0.425627 -2.272285 -3.467581
H 0.763485 -1.364493 -2.502088
H -0.707734 -0.547368 -3.115099
N 0.909223 -2.013843 0.639809
H 0.229931 -2.670720 0.993338
C 2.210516 -2.382512 0.649426
O 3.134264 -1.613785 0.130521
C 2.613139 -3.770829 1.090299
H 3.672027 -3.798982 1.358478
H 2.438065 -4.485741 0.283253
H 2.028718 -4.077012 1.961071
C 0.378909 3.403480 2.360792
O 1.420708 3.622531 1.772475
C -0.061717 4.196599 3.568794
H 0.733428 4.868347 3.900633
H -0.314539 3.522026 4.390061
H -0.946314 4.790099 3.326806
H 2.703826 -0.785612 -0.144707

