#P B3LYP/6-31+G*
#  Units(Ang,Deg)

File generated by Gabedit
Quantum Mechanics Energy(kCal/mol) = 21.474339

1 1
C -1.329778 1.545587 -0.693440
O -1.497694 0.561925 -1.738695
C -1.110277 -0.779482 -1.360799
O -1.498027 -1.742884 -2.377868
C 0.412887 -0.848889 -1.072293
C 0.812585 0.268978 -0.079004
O 2.210580 0.477258 -0.174075
C 0.175723 1.647961 -0.364376
O 0.329973 2.451206 0.840049
C -1.888349 2.881581 -1.232077
O -1.736239 3.919257 -0.262759
H -1.895003 1.229882 0.188589
H -1.675034 -1.036527 -0.451671
H 0.961204 -0.692635 -2.004810
H 0.551370 -0.046565 0.935327
H 2.476121 0.834221 0.679147
H 0.678043 2.130482 -1.208666
H -2.948477 2.766943 -1.472921
H -1.350903 3.161713 -2.142149
H -0.818407 3.864150 0.078180
C -1.032616 -1.509911 -3.729409
H -1.446732 -2.286050 -4.377815
H 0.058140 -1.559875 -3.763161
H -1.373862 -0.530673 -4.075121
N 0.713070 -2.208599 -0.575008
H -0.078367 -2.834000 -0.597931
C 1.919336 -2.792505 -0.361713
O 3.000430 -2.106259 -0.079787
C 1.971857 -4.267927 -0.037250
H 1.192170 -4.807142 -0.580598
H 1.821893 -4.423188 1.033591
H 2.940405 -4.687648 -0.319460
C 1.409504 3.247448 1.019634
O 2.272862 3.462995 0.190612
C 1.350290 3.967976 2.346171
H 2.251540 4.565589 2.501664
H 1.264152 3.247011 3.162424
H 0.480071 4.627624 2.377187
H 2.785339 -1.147555 -0.046637

