#P B3LYP/6-31+G*
#  Units(Ang,Deg)

File generated by Gabedit
Quantum Mechanics Energy(kCal/mol) = -159.477280

1 1
C -1.413190 1.082298 0.124844
O -1.603387 0.202676 -0.977601
C -1.273456 -1.135132 -0.707124
O -1.615377 -1.939877 -1.782963
C 0.284607 -1.168291 -0.516086
C 0.632694 -0.313067 0.720391
O 2.040059 -0.318985 0.766187
C 0.081612 1.112645 0.512760
O 0.180215 1.688242 1.804642
C -1.916285 2.433901 -0.423371
O -2.157358 3.221103 0.726190
H -2.041572 0.761925 0.988877
H -1.843147 -1.542635 0.156048
H 0.769492 -0.721290 -1.430608
H 0.261408 -0.756006 1.674308
H 2.368405 0.405404 1.351475
H 0.699053 1.682766 -0.220510
H -2.889556 2.308981 -0.941005
H -1.188604 2.912453 -1.099714
H -1.835796 4.140923 0.580705
C -1.704681 -1.290041 -3.046708
H -1.885651 -2.132425 -3.728550
H -0.778900 -0.767127 -3.296937
H -2.558779 -0.599489 -3.051630
N 0.742250 -2.550943 -0.318798
H 0.099839 -3.186511 0.162299
C 1.932589 -2.957238 -0.731286
O 2.623735 -2.038135 -1.400815
C 2.479599 -4.308135 -0.509730
H 2.822723 -4.789367 -1.450414
H 1.767766 -5.026054 -0.057342
H 3.358357 -4.294269 0.172789
C 0.258399 3.061770 1.879168
O 0.452849 3.726460 0.898118
C 0.104928 3.479118 3.291884
H 0.713384 4.374942 3.511508
H 0.381475 2.691692 4.011259
H -0.951017 3.741323 3.500832
H 3.562811 -2.325138 -1.638411

