#P B3LYP/6-31+G*
#  Units(Ang,Deg)

File generated by Gabedit
Quantum Mechanics Energy(kCal/mol) = -170.337830

1 1
C -1.451716 1.087098 0.120657
O -1.646782 0.212065 -0.983019
C -1.208738 -1.091653 -0.725307
O -1.631987 -1.955848 -1.722664
C 0.377795 -1.046544 -0.727223
C 0.801068 -0.127639 0.421875
O 2.178106 0.170656 0.157778
C 0.060364 1.228427 0.390759
O 0.205364 1.692284 1.720135
C -2.095281 2.406408 -0.359312
O -2.053460 3.267303 0.757898
H -1.982988 0.705461 1.023723
H -1.629993 -1.511335 0.215479
H 0.730738 -0.608484 -1.705320
H 0.729383 -0.610253 1.424777
H 2.556756 0.766017 0.857936
H 0.548752 1.926688 -0.335334
H -3.167407 2.251720 -0.600823
H -1.574986 2.832158 -1.232978
H -1.688779 4.148392 0.503915
C -1.862684 -1.378206 -3.004025
H -2.117250 -2.257905 -3.612640
H -0.971435 -0.873131 -3.382836
H -2.715266 -0.687397 -2.954270
N 0.819578 -2.451676 -0.648294
H 0.090688 -3.111433 -0.983288
C 2.041520 -2.920890 -0.370336
O 3.037527 -2.180781 -0.005041
C 2.351752 -4.368210 -0.452671
H 2.726425 -4.646844 -1.461373
H 1.498739 -5.030501 -0.225489
H 3.170477 -4.651716 0.247190
C 0.284925 3.058075 1.922199
O 0.522117 3.801055 1.011015
C 0.089893 3.338486 3.361682
H 0.765309 4.140852 3.710103
H 0.243777 2.456986 4.005096
H -0.948001 3.685313 3.542837
H 2.848702 -1.122468 0.070112

