#P B3LYP/6-31G* scf=tight   nosym Opt(Z-matrix) Freq
#  Units(Ang,Deg)

File generated by Gabedit
Quantum Mechanics Energy(kCal/mol) = -642.823190

0 1
Al 0.147487 -0.372810 -2.476709
O 0.237239 -0.154338 -0.902521
Al 0.334533 0.082495 0.803963
O -0.557513 -0.106427 2.229387
O 1.376944 0.637434 2.015859

