#P B3LYP/6-31G* scf=tight   nosym Opt(Z-matrix) Freq
#  Units(Ang,Deg)

File generated by Gabedit
Quantum Mechanics Energy(kCal/mol) = -687.245691

0 1
Al 0.468257 -1.142046 -1.198069
O 0.887092 2.248620 2.424671
Al 0.749201 1.132324 1.231969
O 0.608729 -0.004861 0.016950
O 0.330365 -2.258342 -2.390771

