#P B3LYP/6-31G* scf=tight   nosym Opt(Z-matrix) Freq
#  Units(Ang,Deg)

File generated by Gabedit
Quantum Mechanics Energy(kCal/mol) = -654.201596

0 1
Al 1.356948 -0.291238 0.212408
O 0.618180 -0.792633 -1.289802
Al -0.874450 0.028899 -0.901276
O 0.410757 1.070731 -0.338568
O -0.305190 -0.671606 0.595068

