3
Coordinates from ORCA-job water E -76.413675800911
  H       0.594398     -0.430112     -0.202093
  H       0.130350      0.936362     -0.671422
  O       0.575252      0.493751      0.053280
3
Coordinates from ORCA-job water E -76.413675943409
  H       0.594349     -0.430106     -0.202185
  H       0.130316      0.936295     -0.671508
  O       0.575334      0.493812      0.053459
