# ======================================================
#  Orca input file made in Gabedit
# ======================================================
! NORI Def2-SVP HF Opt Freq
* xyz 0   1
 O  -0.000010030000 -0.380962440000 0.000000000000 
 H  0.767965650000 0.179996340000 0.000000000000 
 H  -0.767925670000 0.179964470000 0.000000000000
*
