# HF/Def2SVP scf=tight Opt Freq Integral(Grid=Ultrafine)

TEST

0   1
                O                  -0.000102   -1.422934    0.000000
                H                  -0.471430   -1.746872    0.753656
                O                  -0.000102    1.553911    0.000000
                H                   0.044757    0.605465    0.000000
                H                   0.899733    1.840458    0.000000
                H                  -0.471430   -1.746872   -0.753656


