# ======================================================
#  Orca input file made in Gabedit
# ======================================================
! NORI Def2-SVP HF ENGRAD
* xyz 0   1
  O      0.000014   -0.389929    0.000000
  H      0.750356    0.184470    0.000000
  H     -0.750340    0.184456    0.000000
*
