16
Coordinates from ORCA-job c1ccccc1C=C E -309.486870238163
  C       0.513305     -1.305779     -0.067994
  C       1.847830     -1.056902     -0.326647
  C       2.291000      0.240597     -0.468624
  C       1.383137      1.269139     -0.347970
  C       0.034589      0.999833     -0.085781
  C      -0.403367     -0.289259      0.054845
  C      -1.801871     -0.539867      0.325435
  C      -2.732824      0.379102      0.455368
  H       0.223367     -2.344234      0.033650
  H       2.584643     -1.850223     -0.426486
  H       3.356278      0.433778     -0.674834
  H       1.721856      2.301723     -0.458371
  H      -0.628130      1.855289     -0.002539
  H      -2.092732     -1.604281      0.428512
  H      -2.549048      1.433576      0.372581
  H      -3.748033      0.077507      0.657335
16
Coordinates from ORCA-job c1ccccc1C=C E -309.491846599994
  C       0.514471     -1.302118     -0.068402
  C       1.857255     -1.067365     -0.328006
  C       2.319496      0.235654     -0.473786
  C       1.424099      1.289631     -0.356434
  C       0.077164      1.044306     -0.095381
  C      -0.396897     -0.257730      0.052358
  C      -1.811941     -0.538138      0.327380
  C      -2.794475      0.348407      0.468012
  H       0.194048     -2.331106      0.038349
  H       2.566427     -1.877804     -0.421947
  H       3.366557      0.414609     -0.676069
  H       1.772622      2.307475     -0.468017
  H      -0.572971      1.901283     -0.014325
  H      -2.063180     -1.590042      0.422847
  H      -2.653213      1.414750      0.392023
  H      -3.799461      0.008188      0.669879
16
Coordinates from ORCA-job c1ccccc1C=C E -309.492401572345
  C       0.512947     -1.301590     -0.068263
  C       1.858326     -1.069872     -0.328201
  C       2.325178      0.234131     -0.474769
  C       1.432635      1.296921     -0.358276
  C       0.088783      1.059681     -0.098155
  C      -0.394940     -0.246004      0.051453
  C      -1.808558     -0.540099      0.326969
  C      -2.804216      0.337890      0.470142
  H       0.172988     -2.323151      0.041685
  H       2.553036     -1.891894     -0.418969
  H       3.370147      0.412813     -0.676637
  H       1.783469      2.312303     -0.470077
  H      -0.569749      1.911735     -0.015141
  H      -2.045657     -1.592472      0.420312
  H      -2.667258      1.407062      0.394261
  H      -3.807131     -0.007453      0.672145
16
Coordinates from ORCA-job c1ccccc1C=C E -309.492551255924
  C       0.511747     -1.299403     -0.068175
  C       1.858146     -1.069131     -0.328345
  C       2.326562      0.233107     -0.475049
  C       1.435698      1.299568     -0.358841
  C       0.093479      1.066940     -0.099131
  C      -0.394200     -0.239145      0.051129
  C      -1.804691     -0.541303      0.326522
  C      -2.805323      0.332244      0.470344
  H       0.157517     -2.315357      0.044077
  H       2.542908     -1.899987     -0.417019
  H       3.371846      0.413670     -0.677153
  H       1.788663      2.314467     -0.470940
  H      -0.574212      1.911970     -0.013888
  H      -2.033790     -1.596202      0.419004
  H      -2.666284      1.401177      0.393465
  H      -3.808067     -0.012619      0.672480
16
Coordinates from ORCA-job c1ccccc1C=C E -309.492578165917
  C       0.511970     -1.298237     -0.068251
  C       1.858285     -1.067923     -0.328571
  C       2.325992      0.232962     -0.475047
  C       1.435293      1.299276     -0.358638
  C       0.093260      1.067333     -0.098844
  C      -0.394104     -0.238206      0.051248
  C      -1.803174     -0.541785      0.326489
  C      -2.803329      0.331423      0.469736
  H       0.152929     -2.312387      0.044770
  H       2.539780     -1.901853     -0.416670
  H       3.371272      0.415677     -0.677376
  H       1.789172      2.314168     -0.470843
  H      -0.579514      1.908228     -0.012257
  H      -2.030508     -1.597535      0.419105
  H      -2.660468      1.399556      0.391660
  H      -3.806855     -0.010698      0.671969
16
Coordinates from ORCA-job c1ccccc1C=C E -309.492581758055
  C       0.512518     -1.298072     -0.068353
  C       1.858590     -1.067481     -0.328784
  C       2.325451      0.233141     -0.475060
  C       1.434504      1.298732     -0.358370
  C       0.092362      1.066298     -0.098389
  C      -0.394064     -0.239034      0.051438
  C      -1.803113     -0.541912      0.326689
  C      -2.802160      0.331976      0.469242
  H       0.153004     -2.312137      0.044729
  H       2.539714     -1.901797     -0.416934
  H       3.370594      0.417240     -0.677537
  H       1.788723      2.313608     -0.470574
  H      -0.582061      1.905751     -0.011226
  H      -2.030718     -1.597750      0.419749
  H      -2.657061      1.399657      0.390302
  H      -3.806282     -0.008222      0.671560
16
Coordinates from ORCA-job c1ccccc1C=C E -309.492582121020
  C       0.512772     -1.298167     -0.068405
  C       1.858751     -1.067508     -0.328941
  C       2.325281      0.233240     -0.475121
  C       1.434220      1.298593     -0.358220
  C       0.092065      1.065888     -0.098106
  C      -0.393996     -0.239518      0.051580
  C      -1.803277     -0.541924      0.326909
  C      -2.802007      0.332262      0.468972
  H       0.153505     -2.312369      0.044607
  H       2.539948     -1.901734     -0.417227
  H       3.370310      0.417911     -0.677690
  H       1.788660      2.313396     -0.470397
  H      -0.582579      1.905104     -0.010704
  H      -2.031027     -1.597714      0.420376
  H      -2.656302      1.399815      0.389471
  H      -3.806324     -0.007276      0.671375
16
Coordinates from ORCA-job c1ccccc1C=C E -309.492582179223
  C       0.512875     -1.298243     -0.068433
  C       1.858815     -1.067600     -0.329145
  C       2.325198      0.233270     -0.475234
  C       1.434118      1.298582     -0.358056
  C       0.092008      1.065789     -0.097778
  C      -0.393922     -0.239729      0.051781
  C      -1.803351     -0.541921      0.327217
  C      -2.802088      0.332346      0.468640
  H       0.153760     -2.312525      0.044497
  H       2.540009     -1.901787     -0.417622
  H       3.370130      0.418291     -0.677932
  H       1.788802      2.313295     -0.470173
  H      -0.582637      1.904960     -0.010106
  H      -2.031009     -1.597677      0.421245
  H      -2.656232      1.399834      0.388412
  H      -3.806477     -0.006885      0.671166
