! RIJCOSX RI-B2PLYP D3BJ def2-tzvpp def2-tzvpp/C TIGHTSCF PAL8
! TightOpt NumFreq
* xyz 0 1
C      0.656792    0.039776   -0.024436
C     -0.665772   -0.039123    0.024657
H      1.248755   -0.866875    0.043586
H      1.186983    0.968033   -0.129789
H     -1.188921   -0.972974    0.130312
H     -1.237836    0.871163   -0.044330

*
