! RIJCOSX RI-B2PLYP D3BJ def2-tzvpp def2-tzvpp/C TIGHTSCF PAL8
! TightOpt NumFreq
* xyz 0 1
C     -5.423316   -0.194815   -1.034517
C     -5.100905   -0.576724    0.379666
Cl    -5.669224   -2.260624    0.631143
C     -3.645701   -0.531582    0.697779
C     -3.068428    0.848658    0.500744
Cl    -3.956282    1.945429    1.598958
C     -1.624246    0.898946    0.887650
C     -0.775285   -0.054126    0.072020
Cl    -0.966142    0.454446   -1.642817
C      0.692849    0.119498    0.398281
C      1.510408   -0.838718   -0.425695
Cl     1.025944   -2.517183   -0.070906
C      2.998882   -0.756080   -0.089310
C      3.554857    0.594856   -0.332288
Cl     3.419479    1.062342   -2.041561
C      4.961377    0.742400    0.125654
C      5.984659   -0.154322   -0.478076
Cl     5.695719   -1.845745   -0.123369
H     -6.342749   -0.719493   -1.408861
H     -4.589072   -0.451849   -1.746538
H     -5.615102    0.888104   -1.142461
H     -5.680036    0.071994    1.079837
H     -3.120159   -1.301942    0.101224
H     -3.514061   -0.798947    1.760230
H     -3.217231    1.192558   -0.560527
H     -1.541109    0.652356    1.960039
H     -1.227819    1.920865    0.726411
H     -1.066838   -1.106291    0.216227
H      0.916533    0.069635    1.462926
H      0.940300    1.166440    0.053127
H      1.383512   -0.654271   -1.497331
H      3.192520   -1.189144    0.878536
H      3.458928   -1.440195   -0.871315
H      2.949621    1.390930    0.227280
H      5.043829    0.570889    1.252596
H      5.323572    1.806973    0.034056
H      6.972556    0.142830   -0.008644
H      6.118163    0.039652   -1.570170

*
