! RIJCOSX RI-B2PLYP D3BJ def2-tzvpp def2-tzvpp/C TIGHTSCF PAL8
! TightOpt NumFreq
* xyz 0 1
Cl     1.729664   -0.271709    1.116431
C      0.486049    0.345855    0.016279
C     -0.654466   -0.271457   -0.158761
H      0.677692    1.258129   -0.523939
H     -1.392060    0.121289   -0.829908
H     -0.846880   -1.182107    0.379898

*
