! RIJCOSX RI-B2PLYP D3BJ def2-tzvpp def2-tzvpp/C TIGHTSCF PAL8
! TightOpt NumFreq
* xyz 0 1
  H   -4.70073300000000      0.61679300000000     -0.35048000000000
  H   -4.72440200000000     -0.16856800000000      1.22816500000000
  C   -3.43761900000000     -1.14762800000000     -0.22460600000000
  H   -3.43882500000000     -1.34453700000000     -1.30210000000000
  H   -3.46468800000000     -2.12729300000000      0.26462200000000
  C   -2.14183100000000     -0.43139700000000      0.15341500000000
  H   -2.11900400000000      0.54807200000000     -0.33374200000000
  H   -2.13238800000000     -0.23829400000000      1.23146000000000
  C   -0.89085200000000     -1.21827500000000     -0.23121400000000
  H   -0.87948400000000     -1.39826900000000     -1.31137500000000
  H   -0.91452900000000     -2.20054600000000      0.25167200000000
  C   0.41137200000000     -0.53954500000000      0.16744200000000
  H   0.40009700000000     -0.30040100000000      1.23187400000000
  C   1.65011200000000     -1.35401500000000     -0.17448000000000
  H   1.67154300000000     -1.52912400000000     -1.25543600000000
  H   1.54539800000000     -2.33463700000000      0.30119100000000
  C   2.96019200000000     -0.70864500000000      0.27454100000000
  H   2.91990100000000     -0.52392900000000      1.35239000000000
  H   3.06140200000000      0.27009700000000     -0.20167700000000
  O   0.49586500000000      0.72033600000000     -0.55894400000000
  C   0.52782600000000      1.87440100000000      0.13509700000000
  C   0.60907500000000      3.05031500000000     -0.80218100000000
  H   -0.26032800000000      3.05753400000000     -1.46124500000000
  H   0.64848500000000      3.97215400000000     -0.22861800000000
  H   1.49533700000000      2.96233700000000     -1.43201200000000
  O   0.49465800000000      1.94911000000000      1.33828400000000
  C   4.17968400000000     -1.56549200000000     -0.05876700000000
  H   5.10426300000000     -1.08520000000000      0.26711500000000
  H   4.12140300000000     -2.54154400000000      0.42987900000000
  H   4.25566400000000     -1.73889200000000     -1.13532800000000

*
