! RIJCOSX RI-B2PLYP D3BJ def2-tzvpp def2-tzvpp/C TIGHTSCF PLS,8
! TightOpt NumFreq
* xyz 0 1
C        4.987918000      0.578113000     -0.000072000
H        5.312975000      0.035696000      0.887370000
H        5.386986000      1.588549000     -0.000011000
O        3.560510000      0.728080000     -0.000071000
C        2.850998000     -0.415957000      0.000023000
O        3.362102000     -1.510794000      0.000106000
C        1.380995000     -0.173653000      0.000017000
C        0.839107000      1.113514000      0.000043000
C        0.535753000     -1.284069000     -0.000008000
C       -0.535744000      1.284046000      0.000041000
H        1.497095000      1.969987000      0.000062000
C       -0.839099000     -1.113537000     -0.000015000
H        0.974527000     -2.272234000     -0.000021000
C       -1.380987000      0.173629000      0.000009000
H       -0.974517000      2.272212000      0.000064000
H       -1.497085000     -1.970012000     -0.000038000
C       -2.850990000      0.415940000      0.000004000
O       -3.362102000      1.510773000      0.000039000
O       -3.560530000     -0.728089000     -0.000057000
H        5.312976000      0.035805000     -0.887564000
C       -4.987925000     -0.578030000     -0.000030000
H       -5.312937000     -0.035181000     -0.887229000
H       -5.387025000     -1.588451000     -0.000563000
H       -5.312985000     -0.036111000      0.887722000
*
