! RIJCOSX RI-B2PLYP D3BJ def2-tzvpp def2-tzvpp/C TIGHTSCF PAL8
! TightOpt NumFreq
* xyz 0 1
  C   4.98791800000000      0.57811300000000     -0.00007200000000
  H   5.31297500000000      0.03569600000000      0.88737000000000
  H   5.38698600000000      1.58854900000000     -0.00001100000000
  O   3.56051000000000      0.72808000000000     -0.00007100000000
  C   2.85099800000000     -0.41595700000000      0.00002300000000
  O   3.36210200000000     -1.51079400000000      0.00010600000000
  C   1.38099500000000     -0.17365300000000      0.00001700000000
  C   0.83910700000000      1.11351400000000      0.00004300000000
  C   0.53575300000000     -1.28406900000000     -0.00000800000000
  C   -0.53574400000000      1.28404600000000      0.00004100000000
  H   1.49709500000000      1.96998700000000      0.00006200000000
  C   -0.83909900000000     -1.11353700000000     -0.00001500000000
  H   0.97452700000000     -2.27223400000000     -0.00002100000000
  C   -1.38098700000000      0.17362900000000      0.00000900000000
  H   -0.97451700000000      2.27221200000000      0.00006400000000
  H   -1.49708500000000     -1.97001200000000     -0.00003800000000
  C   -2.85099000000000      0.41594000000000      0.00000400000000
  O   -3.36210200000000      1.51077300000000      0.00003900000000
  O   -3.56053000000000     -0.72808900000000     -0.00005700000000
  H   5.31297600000000      0.03580500000000     -0.88756400000000
  C   -4.98792500000000     -0.57803000000000     -0.00003000000000
  H   -5.31293700000000     -0.03518100000000     -0.88722900000000
  H   -5.38702500000000     -1.58845100000000     -0.00056300000000
  H   -5.31298500000000     -0.03611100000000      0.88772200000000

*
