! RIJCOSX RI-B2PLYP D3BJ def2-tzvpp def2-tzvpp/C TIGHTSCF PAL8
! TightOpt NumFreq
* xyz 0 1
  C   0.91630900000000      0.60363900000000      1.49171000000000
  H   0.24414700000000     -0.18515700000000      1.83964200000000
  C   0.05346200000000      1.68176000000000      0.81590800000000
  H   0.68867600000000      2.52292400000000      0.52066200000000
  H   -0.64876200000000      2.07678700000000      1.55692000000000
  C   -0.72232700000000      1.20124400000000     -0.42065000000000
  H   0.01131300000000      0.88013000000000     -1.16632700000000
  C   -1.53010900000000      2.35643100000000     -1.03782400000000
  H   -0.85153700000000      3.19941800000000     -1.20221800000000
  H   -2.27664200000000      2.69924800000000     -0.31405700000000
  C   1.89015000000000     -0.03741600000000      0.52455500000000
  C   2.83789100000000      0.72539700000000     -0.16151000000000
  C   1.85659400000000     -1.41148000000000      0.29296800000000
  C   3.72161600000000      0.13300700000000     -1.05514300000000
  H   2.88539200000000      1.79569600000000     -0.00031200000000
  C   2.73993800000000     -2.01134300000000     -0.59903400000000
  H   1.11974400000000     -2.01488300000000      0.80886300000000
  C   3.67550800000000     -1.24013800000000     -1.27857100000000
  H   4.44772200000000      0.74288300000000     -1.57860500000000
  H   2.69437100000000     -3.08080100000000     -0.76448700000000
  H   4.36308100000000     -1.70276500000000     -1.97532900000000
  C   -1.59727000000000      0.00442900000000     -0.11181400000000
  C   -1.41931200000000     -1.20006900000000     -0.78982500000000
  C   -2.60158100000000      0.07558700000000      0.85608200000000
  C   -2.21642500000000     -2.30583300000000     -0.51136900000000
  H   -0.63958100000000     -1.27275400000000     -1.53780100000000
  C   -3.40061800000000     -1.02502500000000      1.14004100000000
  H   -2.76216300000000      1.00072800000000      1.39655100000000
  C   -3.21019500000000     -2.22278200000000      0.45682700000000
  H   -2.05956300000000     -3.23200200000000     -1.05060500000000
  H   -4.17329000000000     -0.94912400000000      1.89529000000000
  H   -3.83187500000000     -3.08133300000000      0.67739500000000
  C   -2.21689300000000      1.98730000000000     -2.35014600000000
  H   -2.93302500000000      1.17654600000000     -2.20646800000000
  H   -2.75357400000000      2.84161600000000     -2.76728700000000
  H   -1.48636300000000      1.65602300000000     -3.09274200000000
  C   1.63910000000000      1.17752200000000      2.71724800000000
  H   0.92089100000000      1.58697700000000      3.43150600000000
  H   2.22331200000000      0.40648800000000      3.22212000000000
  H   2.32270200000000      1.97997500000000      2.43057600000000

*
