40
Coordinates from ORCA-job PS E -698.831243679307
  C       0.916309      0.603639      1.491710
  H       0.244147     -0.185157      1.839642
  C       0.053462      1.681760      0.815908
  H       0.688676      2.522924      0.520662
  H      -0.648762      2.076787      1.556920
  C      -0.722327      1.201244     -0.420650
  H       0.011313      0.880130     -1.166327
  C      -1.530109      2.356431     -1.037824
  H      -0.851537      3.199418     -1.202218
  H      -2.276642      2.699248     -0.314057
  C       1.890150     -0.037416      0.524555
  C       2.837891      0.725397     -0.161510
  C       1.856594     -1.411480      0.292968
  C       3.721616      0.133007     -1.055143
  H       2.885392      1.795696     -0.000312
  C       2.739938     -2.011343     -0.599034
  H       1.119744     -2.014883      0.808863
  C       3.675508     -1.240138     -1.278571
  H       4.447722      0.742883     -1.578605
  H       2.694371     -3.080801     -0.764487
  H       4.363081     -1.702765     -1.975329
  C      -1.597270      0.004429     -0.111814
  C      -1.419312     -1.200069     -0.789825
  C      -2.601581      0.075587      0.856082
  C      -2.216425     -2.305833     -0.511369
  H      -0.639581     -1.272754     -1.537801
  C      -3.400618     -1.025025      1.140041
  H      -2.762163      1.000728      1.396551
  C      -3.210195     -2.222782      0.456827
  H      -2.059563     -3.232002     -1.050605
  H      -4.173290     -0.949124      1.895290
  H      -3.831875     -3.081333      0.677395
  C      -2.216893      1.987300     -2.350146
  H      -2.933025      1.176546     -2.206468
  H      -2.753574      2.841616     -2.767287
  H      -1.486363      1.656023     -3.092742
  C       1.639100      1.177522      2.717248
  H       0.920891      1.586977      3.431506
  H       2.223312      0.406488      3.222120
  H       2.322702      1.979975      2.430576
40
Coordinates from ORCA-job PS E -698.829975822148
  C       1.027880      0.583963      1.513148
  H       0.417782     -0.231529      1.905567
  C       0.076960      1.603495      0.852836
  H       0.668484      2.463568      0.528250
  H      -0.608749      1.983930      1.615030
  C      -0.736982      1.110334     -0.362686
  H      -0.021949      0.768079     -1.115005
  C      -1.525227      2.275750     -0.983785
  H      -0.832897      3.101326     -1.162998
  H      -2.257573      2.639904     -0.258773
  C       2.001676     -0.022445      0.530938
  C       2.878993      0.778293     -0.201920
  C       2.051925     -1.402989      0.345458
  C       3.780819      0.214833     -1.095894
  H       2.861594      1.852306     -0.071617
  C       2.951124     -1.973813     -0.549106
  H       1.369857     -2.033788      0.900430
  C       3.818563     -1.165622     -1.274789
  H       4.454695      0.851469     -1.651528
  H       2.971306     -3.046826     -0.678656
  H       4.519250     -1.604758     -1.969644
  C      -1.665933     -0.050165     -0.064901
  C      -1.547263     -1.251136     -0.764518
  C      -2.724945      0.082571      0.838593
  C      -2.450962     -2.291897     -0.568938
  H      -0.744416     -1.364642     -1.480020
  C      -3.633639     -0.951545      1.035276
  H      -2.860791      1.013358      1.373003
  C      -3.499500     -2.145291      0.331635
  H      -2.343853     -3.209356     -1.130919
  H      -4.455166     -0.821549      1.726088
  H      -4.210910     -2.946057      0.476351
  C      -2.231803      1.907152     -2.284911
  H      -2.961885      1.114458     -2.126830
  H      -2.754269      2.765698     -2.705456
  H      -1.517062      1.554148     -3.029296
  C       1.773345      1.224440      2.691553
  H       1.066104      1.614968      3.424537
  H       2.414220      0.497558      3.188436
  H       2.402010      2.050660      2.357801
40
Coordinates from ORCA-job PS E -698.830886811857
  C       0.987145      0.582439      1.506980
  H       0.360035     -0.229748      1.880304
  C       0.062653      1.620501      0.850512
  H       0.663246      2.479835      0.540625
  H      -0.633400      1.994887      1.606084
  C      -0.726474      1.129253     -0.373305
  H      -0.000156      0.784109     -1.113582
  C      -1.507667      2.292936     -1.006913
  H      -0.813346      3.118377     -1.178567
  H      -2.249193      2.658202     -0.292453
  C       1.959985     -0.023223      0.521963
  C       2.859372      0.774826     -0.188370
  C       1.982470     -1.400299      0.304433
  C       3.756041      0.212227     -1.088708
  H       2.861930      1.845957     -0.036850
  C       2.877739     -1.970027     -0.595696
  H       1.283099     -2.028951      0.839550
  C       3.767911     -1.164516     -1.296591
  H       4.445686      0.846800     -1.627121
  H       2.876753     -3.039947     -0.749316
  H       4.464521     -1.602776     -1.996340
  C      -1.644454     -0.035197     -0.068826
  C      -1.498713     -1.249093     -0.740424
  C      -2.696982      0.091316      0.842512
  C      -2.377771     -2.305327     -0.517738
  H      -0.690719     -1.362982     -1.450407
  C      -3.579207     -0.959208      1.068411
  H      -2.841387      1.024980      1.369596
  C      -3.423751     -2.163312      0.386874
  H      -2.249320     -3.233891     -1.056112
  H      -4.392853     -0.836612      1.769507
  H      -4.112492     -2.978363      0.557140
  C      -2.195729      1.923088     -2.316761
  H      -2.928924      1.131957     -2.168168
  H      -2.710590      2.781861     -2.745494
  H      -1.470604      1.568379     -3.050025
  C       1.724573      1.197479      2.702071
  H       1.014106      1.588512      3.431093
  H       2.349312      0.455577      3.196940
  H       2.367970      2.018825      2.385914
40
Coordinates from ORCA-job PS E -698.831326275728
  C       0.926410      0.575626      1.484008
  H       0.269334     -0.229334      1.820124
  C       0.048050      1.646479      0.825346
  H       0.668742      2.498901      0.536448
  H      -0.657927      2.020961      1.571082
  C      -0.720705      1.163806     -0.408486
  H       0.011806      0.817376     -1.141691
  C      -1.500350      2.323622     -1.047664
  H      -0.805789      3.149313     -1.217658
  H      -2.245512      2.689152     -0.337173
  C       1.911517     -0.031008      0.509347
  C       2.854820      0.759740     -0.152677
  C       1.898855     -1.400998      0.247273
  C       3.753528      0.198566     -1.052465
  H       2.886765      1.825127      0.032221
  C       2.797442     -1.969205     -0.651582
  H       1.169467     -2.025000      0.745852
  C       3.727585     -1.170056     -1.306413
  H       4.473769      0.828343     -1.555608
  H       2.768000     -3.033177     -0.840377
  H       4.425918     -1.607013     -2.005696
  C      -1.621051     -0.007321     -0.088881
  C      -1.453869     -1.231896     -0.735761
  C      -2.646282      0.106393      0.854055
  C      -2.285240     -2.312741     -0.455399
  H      -0.659159     -1.338573     -1.461711
  C      -3.479330     -0.969222      1.139061
  H      -2.796782      1.043583      1.373236
  C      -3.302250     -2.184948      0.483938
  H      -2.137538     -3.251861     -0.969984
  H      -4.266325     -0.859766      1.871985
  H      -3.950591     -3.021010      0.703371
  C      -2.180038      1.949558     -2.359716
  H      -2.913509      1.158165     -2.213050
  H      -2.692762      2.807015     -2.793603
  H      -1.449690      1.593550     -3.087155
  C       1.638364      1.146953      2.713790
  H       0.915077      1.539245      3.428979
  H       2.231324      0.380837      3.211247
  H       2.308741      1.959665      2.434131
40
Coordinates from ORCA-job PS E -698.831354353744
  C       0.924848      0.570195      1.477650
  H       0.266287     -0.235203      1.808955
  C       0.050476      1.642568      0.814422
  H       0.675546      2.490990      0.523700
  H      -0.652587      2.023031      1.559840
  C      -0.725083      1.162907     -0.418241
  H       0.003074      0.815439     -1.155425
  C      -1.503295      2.326134     -1.051821
  H      -0.806429      3.149585     -1.223492
  H      -2.243877      2.693112     -0.337264
  C       1.917494     -0.034471      0.509321
  C       2.858989      0.759364     -0.151715
  C       1.914609     -1.405471      0.252352
  C       3.764676      0.200515     -1.045876
  H       2.884288      1.825531      0.029637
  C       2.820444     -1.971476     -0.640565
  H       1.188153     -2.032473      0.751369
  C       3.748206     -1.169155     -1.294891
  H       4.483254      0.832838     -1.548191
  H       2.798815     -3.036398     -0.824953
  H       4.451744     -1.604345     -1.990012
  C      -1.628463     -0.006198     -0.096038
  C      -1.475608     -1.227535     -0.752393
  C      -2.640282      0.105927      0.861567
  C      -2.304443     -2.308098     -0.463616
  H      -0.693712     -1.332065     -1.492303
  C      -3.470582     -0.969475      1.155282
  H      -2.781857      1.041476      1.386062
  C      -3.305290     -2.183053      0.493220
  H      -2.167163     -3.244965     -0.985146
  H      -4.246084     -0.861486      1.900555
  H      -3.950662     -3.019345      0.720359
  C      -2.190080      1.956256     -2.361371
  H      -2.925383      1.167072     -2.212307
  H      -2.701921      2.815879     -2.791932
  H      -1.464101      1.598770     -3.092442
  C       1.628316      1.140876      2.712778
  H       0.899907      1.531295      3.423740
  H       2.219255      0.375234      3.213279
  H       2.299333      1.955069      2.438651
40
Coordinates from ORCA-job PS E -698.831358639117
  C       0.921118      0.569825      1.474202
  H       0.258417     -0.234172      1.799847
  C       0.053849      1.645786      0.807319
  H       0.684592      2.489062      0.514501
  H      -0.646929      2.033206      1.551289
  C      -0.725560      1.166558     -0.424357
  H       0.000913      0.819229     -1.163414
  C      -1.505604      2.329147     -1.055766
  H      -0.809359      3.152668     -1.229726
  H      -2.244090      2.696052     -0.338929
  C       1.917377     -0.035153      0.510887
  C       2.864941      0.757236     -0.143212
  C       1.909472     -1.405002      0.248536
  C       3.770606      0.198098     -1.037215
  H       2.894570      1.822618      0.042605
  C       2.814464     -1.970979     -0.645066
  H       1.178128     -2.030884      0.741991
  C       3.747458     -1.170172     -1.293689
  H       4.493575      0.829324     -1.534548
  H       2.787821     -3.034816     -0.834883
  H       4.450130     -1.605398     -1.989607
  C      -1.627138     -0.003768     -0.099383
  C      -1.474519     -1.225379     -0.755159
  C      -2.635540      0.107104      0.861991
  C      -2.297545     -2.308526     -0.459464
  H      -0.696695     -1.328343     -1.499583
  C      -3.460545     -0.970612      1.162142
  H      -2.779531      1.043885      1.383505
  C      -3.293330     -2.185408      0.502826
  H      -2.159751     -3.245871     -0.979982
  H      -4.233287     -0.863394      1.910388
  H      -3.933402     -3.024051      0.736242
  C      -2.196311      1.958077     -2.362985
  H      -2.930551      1.168485     -2.210794
  H      -2.710090      2.816905     -2.792761
  H      -1.472369      1.600388     -3.095973
  C       1.618986      1.135408      2.714775
  H       0.887528      1.525955      3.422454
  H       2.205270      0.367175      3.216900
  H       2.293744      1.948589      2.446835
40
Coordinates from ORCA-job PS E -698.831362175540
  C       0.921530      0.572567      1.475516
  H       0.258391     -0.230385      1.802842
  C       0.054529      1.648318      0.807886
  H       0.686259      2.490210      0.513337
  H      -0.645549      2.037923      1.551444
  C      -0.725365      1.168587     -0.423354
  H       0.001436      0.823216     -1.163045
  C      -1.507775      2.330530     -1.052925
  H      -0.813187      3.155619     -1.226000
  H      -2.246650      2.695074     -0.335270
  C       1.915263     -0.034888      0.510827
  C       2.863122      0.755200     -0.145588
  C       1.905015     -1.405061      0.250049
  C       3.767939      0.193408     -1.038719
  H       2.894829      1.820680      0.038905
  C       2.809330     -1.973807     -0.642484
  H       1.173232     -2.029263      0.744969
  C       3.743501     -1.175366     -1.292333
  H       4.491781      0.822860     -1.537028
  H       2.781399     -3.037964     -0.830375
  H       4.445574     -1.612667     -1.987531
  C      -1.624676     -0.003707     -0.099239
  C      -1.468650     -1.224859     -0.754964
  C      -2.635252      0.105262      0.860106
  C      -2.290898     -2.309263     -0.461787
  H      -0.689244     -1.326249     -1.497998
  C      -3.459491     -0.973739      1.157785
  H      -2.782349      1.041871      1.381110
  C      -3.289177     -2.187949      0.498147
  H      -2.150854     -3.246025     -0.982755
  H      -4.234404     -0.867790      1.903960
  H      -3.928623     -3.027598      0.729669
  C      -2.198405      1.959911     -2.360327
  H      -2.930926      1.168604     -2.208733
  H      -2.714176      2.818227     -2.788739
  H      -1.474118      1.604669     -3.094155
  C       1.621576      1.139113      2.714658
  H       0.891243      1.530300      3.423241
  H       2.208525      0.371234      3.216459
  H       2.296108      1.952049      2.445179
40
Coordinates from ORCA-job PS E -698.830171882639
  C       0.921293      0.573355      1.475552
  H       0.258061     -0.229259      1.803690
  C       0.054561      1.648947      0.807262
  H       0.687228      2.489699      0.511306
  H      -0.645043      2.040419      1.550347
  C      -0.725696      1.169279     -0.423580
  H       0.001053      0.825135     -1.163877
  C      -1.509364      2.331419     -1.051220
  H      -0.815692      3.157529     -1.223074
  H      -2.248427      2.694113     -0.332849
  C       1.914214     -0.035259      0.510288
  C       2.861856      0.753925     -0.147521
  C       1.904498     -1.405897      0.251650
  C       3.767089      0.190981     -1.039472
  H       2.893581      1.819659      0.035335
  C       2.809441     -1.975938     -0.639460
  H       1.173073     -2.029596      0.747648
  C       3.743585     -1.178294     -1.290366
  H       4.490830      0.819881     -1.538638
  H       2.782128     -3.040471     -0.825333
  H       4.446179     -1.616553     -1.984443
  C      -1.623943     -0.003695     -0.099803
  C      -1.467224     -1.224428     -0.756072
  C      -2.634342      0.104279      0.859848
  C      -2.289333     -2.309195     -0.463878
  H      -0.687605     -1.325142     -1.498971
  C      -3.458195     -0.975206      1.156822
  H      -2.781346      1.040353      1.381905
  C      -3.287768     -2.188791      0.496030
  H      -2.149068     -3.245498     -0.985607
  H      -4.232964     -0.870069      1.903259
  H      -3.927030     -3.028759      0.726878
  C      -2.199950      1.962225     -2.359041
  H      -2.931463      1.169796     -2.208440
  H      -2.716885      2.820608     -2.785913
  H      -1.475474      1.609038     -3.093667
  C       1.621883      1.140840      2.713915
  H       0.891697      1.531409      3.422998
  H       2.209920      0.373599      3.215345
  H       2.295459      1.954413      2.443887
40
Coordinates from ORCA-job PS E -697.645572234586
  C       0.917751      0.588155      1.477464
  H       0.254424     -0.207845      1.824738
  C       0.054799      1.658799      0.795665
  H       0.705703      2.475606      0.470268
  H      -0.634646      2.088453      1.528295
  C      -0.732325      1.180238     -0.427054
  H      -0.006792      0.861345     -1.179340
  C      -1.540605      2.346773     -1.014279
  H      -0.865369      3.193033     -1.158776
  H      -2.283594      2.670647     -0.282112
  C       1.892988     -0.043889      0.499614
  C       2.833781      0.727685     -0.188026
  C       1.897177     -1.423470      0.286130
  C       3.748174      0.143170     -1.055749
  H       2.863645      1.798243     -0.039631
  C       2.815674     -2.017865     -0.575597
  H       1.174900     -2.037616      0.805174
  C       3.746998     -1.235210     -1.249214
  H       4.467929      0.761797     -1.573406
  H       2.803393     -3.089340     -0.718997
  H       4.460930     -1.691354     -1.920013
  C      -1.609844     -0.005279     -0.111295
  C      -1.440746     -1.216942     -0.778362
  C      -2.617205      0.084030      0.853648
  C      -2.262344     -2.307414     -0.507861
  H      -0.656469     -1.305473     -1.517731
  C      -3.435660     -1.003573      1.134835
  H      -2.760443      1.008838      1.397763
  C      -3.264796     -2.204112      0.450170
  H      -2.119010     -3.234048     -1.045548
  H      -4.207869     -0.913859      1.885824
  H      -3.902561     -3.049132      0.665721
  C      -2.229615      2.009380     -2.331307
  H      -2.940622      1.194584     -2.203519
  H      -2.769648      2.869113     -2.725562
  H      -1.501276      1.699688     -3.081421
  C       1.631571      1.178514      2.695931
  H       0.906925      1.556251      3.416580
  H       2.245591      0.428934      3.187775
  H       2.279901      2.001997      2.411946
40
Coordinates from ORCA-job PS E -698.831033807082
  C       0.917236      0.582387      1.472763
  H       0.253978     -0.215927      1.814755
  C       0.055000      1.654280      0.792146
  H       0.706532      2.470514      0.466606
  H      -0.633546      2.084050      1.525512
  C      -0.733892      1.176974     -0.430069
  H      -0.009487      0.854482     -1.181928
  C      -1.538142      2.345722     -1.018429
  H      -0.859708      3.189007     -1.165498
  H      -2.278223      2.674339     -0.285422
  C       1.896449     -0.044646      0.495804
  C       2.838041      0.731096     -0.186064
  C       1.904784     -1.423562      0.278556
  C       3.757202      0.151230     -1.051844
  H       2.864902      1.801288     -0.034381
  C       2.828109     -2.013348     -0.581195
  H       1.182195     -2.040943      0.793355
  C       3.760135     -1.226605     -1.249078
  H       4.477490      0.773037     -1.564956
  H       2.819214     -3.084495     -0.727338
  H       4.477903     -1.679199     -1.918210
  C      -1.615049     -0.005045     -0.111884
  C      -1.448298     -1.219349     -0.773910
  C      -2.622025      0.089883      0.852933
  C      -2.270623     -2.307800     -0.497923
  H      -0.664450     -1.312356     -1.513144
  C      -3.441495     -0.995478      1.139529
  H      -2.763568      1.017118      1.393334
  C      -3.272093     -2.199358      0.460475
  H      -2.128425     -3.237009     -1.031397
  H      -4.212986     -0.901583      1.890754
  H      -3.910309     -3.042884      0.680530
  C      -2.231750      2.008801     -2.333258
  H      -2.947499      1.198634     -2.201732
  H      -2.768168      2.870641     -2.728034
  H      -1.506691      1.693767     -3.084479
  C       1.626133      1.168517      2.695999
  H       0.898961      1.542733      3.415559
  H       2.239417      0.418562      3.186463
  H       2.273557      1.991374      2.417838
