! RIJCOSX RI-B2PLYP D3BJ def2-tzvpp def2-tzvpp/C TIGHTSCF PAL8
! TightOpt NumFreq
* xyz 0 1
  Cl  -3.67868800000000     -0.78931100000000     -0.22975300000000
  C   -1.19193600000000      0.06595500000000     -1.08793800000000
  H   -1.20716800000000     -0.96390900000000     -1.44446800000000
  H   -0.92728000000000      0.70307300000000     -1.94353400000000
  C   -2.53701800000000      0.46852800000000     -0.59306500000000
  C   -0.05417200000000      0.23565800000000     -0.07222800000000
  H   -0.04467500000000      1.25800000000000      0.30038500000000
  Cl  -0.39541500000000     -0.77563700000000      1.41234000000000
  C   1.29497700000000     -0.13617700000000     -0.67102600000000
  H   1.25273500000000     -1.16215900000000     -1.04068200000000
  H   1.45847400000000      0.51435100000000     -1.53605400000000
  C   2.47919900000000      0.00851900000000      0.27761700000000
  H   2.41464100000000     -0.72937200000000      1.07302000000000
  Cl  3.98834000000000     -0.46207000000000     -0.65096700000000
  C   2.66101600000000      1.39882300000000      0.85346700000000
  H   2.71834700000000      2.14674200000000      0.06050700000000
  H   1.82118400000000      1.64101900000000      1.50842000000000
  H   3.57272500000000      1.45432400000000      1.44641900000000
  C   -2.81183300000000      1.80871100000000     -0.01818500000000
  H   -3.85542100000000      2.09666500000000     -0.15619600000000
  H   -2.60660200000000      1.83991600000000      1.06122600000000
  H   -2.18038200000000      2.56054400000000     -0.49841800000000

*
